[CONDUITS]
;;Name           From Node        To Node          Length     Roughness  InOffset   OutOffset  InitFlow   MaxFlow   
;;-------------- ---------------- ---------------- ---------- ---------- ---------- ---------- ---------- ----------
1.1              1                2                94.281254  0.012857   0.000000   0.000000   0.000000   0         
11.1             11               12               50.699111  0.012857   0.000000   0.250000   0.000000   0         
23.1             23               24               39.782011  0.012857   0.000000   0.000000   0.000000   0         
36.1             36               37               69.303391  0.012857   0.000000   0.010000   0.000000   0         
42.1             42               43               79.807025  0.012857   0.000000   0.000000   0.000000   0         
46.1             46               47               61.020944  0.012857   0.000000   0.000000   0.000000   0         
48.1             48               49               48.540400  0.012857   0.000000   0.000000   0.000000   0         
58.1             58               59               47.351720  0.012857   0.000000   0.040000   0.000000   0         
60.1             60               61               38.956165  0.012857   0.000000   0.000000   0.000000   0         
66.1             66               67               38.162921  0.012857   0.000000   0.000000   0.000000   0         
68.1             68               69               85.903370  0.012857   0.000000   0.000000   0.000000   0         
88.1             88               89               38.163555  0.012857   0.000000   0.000000   0.000000   0         
112.1            112              113              41.221651  0.012857   0.000000   0.000000   0.000000   0         
118.1            118              119              33.478208  0.012857   0.000000   0.000000   0.000000   0         
120.1            120              121              37.578412  0.012857   0.000000   0.000000   0.000000   0         
130.1            130              131              41.360878  0.012857   0.000000   0.000500   0.000000   0         
134.1            134              135              44.747250  0.012857   0.000000   0.000000   0.000000   0         
140.1            140              141              55.334341  0.012857   0.000000   0.000000   0.000000   0         
144.1            144              145              56.045129  0.012857   0.000000   0.150000   0.000000   0         
150.1            150              151              48.092727  0.012857   0.000000   0.000000   0.000000   0         
153.1            153              152              53.845727  0.012857   0.000000   0.000000   0.000000   0         
141.1            141              161              53.137889  0.012857   0.000000   0.000000   0.000000   0         
162.1            162              163              49.557445  0.012857   0.000000   0.000000   0.000000   0         
178.1            178              179              48.428361  0.012857   0.000000   1.800000   0.000000   0         
189.1            189              190              65.528376  0.012857   0.000000   0.000000   0.000000   0         
191.1            191              192              41.426058  0.012857   0.188900   0.000000   0.000000   0         
193.1            193              194              63.379397  0.012857   0.000000   0.000000   0.000000   0         
195.1            195              196              38.436587  0.012857   0.000000   0.000000   0.000000   0         
199.1            199              200              44.506210  0.012857   0.000000   0.000000   0.000000   0         
205.1            205              206              51.577664  0.012857   0.000000   0.000000   0.000000   0         
208.1            208              209              63.062064  0.012857   0.000000   1.000000   0.000000   0         
216.1            216              217              40.965287  0.012857   0.000000   0.000000   0.000000   0         
229.1            229              208              40.210096  0.012857   0.000000   0.000000   0.000000   0         
231.1            231              230              53.696378  0.012857   0.000000   0.000000   0.000000   0         
234.1            234              235              34.750056  0.012857   0.000000   0.000000   0.000000   0         
239.1            239              240              50.166335  0.012857   0.000000   0.000000   0.000000   0         
246.1            246              247              33.137171  0.012857   0.000000   0.050000   0.000000   0         
240.1            240              248              45.985070  0.012857   0.000000   0.000000   0.000000   0         
251.1            251              252              34.418039  0.012857   0.000000   0.000000   0.000000   0         
255.1            255              256              50.522465  0.012857   0.000000   0.000000   0.000000   0         
267.1            267              268              6.893805   0.012857   0.000000   0.000000   0.000000   0         
278.1            278              DD2-5            37.102741  0.012857   0.000000   1.330000   0.000000   0         
300.1            300              301              38.561973  0.012857   0.000000   0.000000   0.000000   0         
248.1            248              304              60.179276  0.012857   0.000000   0.000000   0.000000   0         
206.1            206              305              34.860792  0.012857   0.000000   0.000000   0.000000   0         
313.1            313              314              63.306616  0.012857   0.000000   0.000000   0.000000   0         
315.1            315              316              69.801852  0.012857   0.092150   0.000000   0.000000   0         
316.1            316              300              90.362539  0.012857   0.211550   0.000000   0.000000   0         
321.1            321              322              48.281615  0.012857   0.000000   0.000000   0.000000   0         
325.1            325              326              62.639193  0.012857   0.000000   0.000000   0.000000   0         
327.1            327              251              90.206095  0.012857   0.000000   0.000000   0.000000   0         
330.1            330              331              67.845456  0.012857   0.000000   0.000000   0.000000   0         
69.1             69               334              94.113660  0.012857   0.000000   0.000000   0.000000   0         
335.1            335              246              20.797495  0.012857   0.000000   0.310000   0.000000   0         
336.1            336              337              40.823514  0.012857   0.000000   0.000000   0.000000   0         
339.1            339              340              24.119370  0.012857   0.000000   0.000000   0.000000   0         
342.1            342              343              77.298835  0.012857   0.000000   0.000000   0.000000   0         
344.1            344              345              45.685307  0.012857   0.000000   0.000000   0.000000   0         
350.1            350              351              42.096813  0.012857   0.000000   0.000000   0.000000   0         
354.1            354              355              58.119678  0.012857   0.000000   0.100000   0.000000   0         
362.1            362              363              43.179153  0.012857   0.000000   0.000000   0.000000   0         
366.1            366              367              24.338916  0.012857   0.000000   0.000000   0.000000   0         
378.1            378              379              41.256558  0.012857   0.000000   0.000000   0.000000   0         
200.1            200              384              44.299631  0.012857   0.000000   0.000000   0.000000   0         
397.1            397              153              53.441066  0.012857   0.000000   0.000000   0.000000   0         
407.2            407              92               44.377120  0.012857   0.000000   0.000000   0.000000   0         
414.1            414              415              73.929701  0.012857   0.000000   0.000000   0.000000   0         
418.1            418              308              64.821546  0.012857   0.000000   0.230000   0.000000   0         
429.1            429              430              40.588098  0.012857   0.000000   0.000000   0.000000   0         
443.1            443              444              31.789749  0.012857   0.000000   0.000000   0.000000   0         
453.1            453              454              22.099117  0.012857   0.000000   0.000000   0.000000   0         
455.1            455              456              52.935907  0.012857   0.000000   0.000000   0.000000   0         
460.1            460              461              57.928113  0.012857   0.000000   0.000000   0.000000   0         
462.1            462              463              28.779159  0.012857   0.000000   0.000000   0.000000   0         
469.1            469              452              18.083674  0.012857   0.000000   0.080000   0.000000   0         
334.1            334              477              38.402066  0.012857   0.000000   0.110000   0.000000   0         
486.1            486              487              84.384706  0.012857   0.000000   0.245000   0.000000   0         
497.1            497              429              41.272800  0.012857   0.000000   0.000000   0.000000   0         
500.1            500              501              50.553121  0.012857   0.000000   0.000000   0.000000   0         
456.1            456              510              54.482834  0.012857   0.000000   0.000000   0.000000   0         
511.1            511              512              100.123716 0.012857   0.000000   0.000000   0.000000   0         
256.1            256              205              50.558555  0.012857   0.000000   0.000000   0.000000   0         
524.1            524              DD2-4            4.067626   0.012857   0.000000   0.250000   0.000000   0         
533.1            533              534              58.593216  0.012857   0.000000   0.000000   0.000000   0         
539.1            539              540              17.478434  0.012857   0.000000   0.000000   0.000000   0         
540.1            540              541              33.442485  0.012857   0.000000   0.020000   0.000000   0         
566.1            566              285              74.529822  0.012857   0.000000   0.000000   0.000000   0         
579.1            579              580              44.341600  0.012857   0.000000   0.000000   0.000000   0         
581.1            581              582              53.952061  0.012857   0.000000   0.000000   0.000000   0         
591.1            591              592              48.593210  0.012857   0.000000   0.000000   0.000000   0         
599.1            599              598              2.862516   0.012857   0.000000   0.000000   0.000000   0         
600.1            600              601              34.115162  0.012857   0.000000   0.000000   0.000000   0         
602.1            602              603              31.245416  0.012857   0.000000   0.000000   0.000000   0         
592.1            592              607              50.297814  0.012857   0.000000   0.000000   0.000000   0         
89.1             89               599              36.152772  0.012857   0.000000   0.290000   0.000000   0         
630.1            630              452              4.397240   0.012857   0.000000   0.250000   0.000000   0         
448.1            448              649              43.041750  0.012857   0.000000   0.000000   0.000000   0         
656.1            656              657              19.884299  0.012857   0.000000   0.040000   0.000000   0         
512.1            512              669              98.119794  0.012857   0.000000   0.000000   0.000000   0         
670.1            670              671              7.273960   0.012857   0.080000   0.000000   0.000000   0         
676.1            676              677              47.412715  0.012857   0.000000   0.000000   0.000000   0         
678.1            678              676              52.050780  0.012857   0.000000   0.000000   0.000000   0         
119.1            119              120              38.286342  0.012857   0.000000   0.000000   0.000000   0         
700.1            700              216              51.850144  0.012857   0.347950   0.000000   0.000000   0         
703.1            703              581              111.001080 0.012857   0.000000   0.000000   0.000000   0         
706.1            706              707              29.109418  0.012857   0.000000   0.000000   0.000000   0         
715.1            715              716              53.125077  0.012857   0.000000   0.000000   0.000000   0         
717.1            717              718              39.902070  0.012857   0.000000   0.000000   0.000000   0         
727.1            727              728              40.608421  0.012857   0.000000   0.000000   0.000000   0         
739.1            739              740              43.690164  0.012857   0.000000   0.100000   0.000000   0         
745.1            745              744              56.616012  0.012857   0.000000   0.000000   0.000000   0         
746.1            746              747              41.438465  0.012857   0.000000   0.000000   0.000000   0         
748.1            748              749              15.251212  0.012857   0.000000   0.003700   0.000000   0         
761.1            761              762              40.741484  0.012857   0.190950   0.000000   0.000000   0         
763.1            763              764              41.344155  0.012857   0.000000   0.000000   0.000000   0         
765.1            765              766              50.892075  0.012857   0.000000   0.000000   0.000000   0         
768.1            768              769              46.207049  0.012857   0.000000   0.000000   0.000000   0         
49.1             49               770              93.224251  0.012857   0.000000   0.000000   0.000000   0         
771.1            771              772              50.024912  0.012857   0.000000   0.000000   0.000000   0         
773.1            773              774              14.519652  0.012857   0.000000   0.000000   0.000000   0         
438.1            438              775              50.825546  0.012857   0.000000   0.000000   0.000000   0         
776.1            776              777              48.662789  0.012857   0.000000   0.000000   0.000000   0         
783.1            783              739              29.050148  0.012857   0.000000   0.000000   0.000000   0         
784.1            784              785              27.952289  0.012857   0.000000   0.000000   0.000000   0         
788.1            788              68               87.389959  0.012857   0.447800   0.000000   0.000000   0         
345.1            345              748              33.091438  0.012857   0.000000   0.000000   0.000000   0         
790.1            790              791              56.588233  0.012857   0.000000   0.000000   0.000000   0         
367.1            367              378              23.436366  0.012857   3.000000   0.000000   0.000000   0         
793.1            793              783              46.130111  0.012857   0.000000   0.000000   0.000000   0         
603.1            603              794              100.123511 0.012857   0.000000   0.000000   0.000000   0         
796.1            796              797              65.030379  0.012857   0.000000   0.010000   0.000000   0         
800.1            800              801              50.484444  0.012857   0.000000   0.000000   0.000000   0         
791.1            791              511              100.318834 0.012857   0.000000   0.000000   0.000000   0         
749.1            749              803              20.761565  0.012857   0.000000   0.000000   0.000000   0         
812.1            812              350              43.030130  0.012857   0.000000   0.000000   0.000000   0         
355.1            355              788              9.989180   0.012857   0.000000   0.000000   0.000000   0         
777.1            777              817              41.452335  0.012857   0.000000   0.000000   0.000000   0         
822.1            822              602              56.842055  0.012857   0.000000   0.000000   0.000000   0         
252.1            252              703              110.037406 0.012857   0.000000   0.000000   0.000000   0         
772.1            772              826              23.030307  0.012857   0.000000   0.000000   0.000000   0         
832.1            832              776              57.180680  0.012857   0.000000   0.000000   0.000000   0         
837.1            837              579              20.697820  0.012857   0.043300   0.000000   0.000000   0         
769.1            769              267              47.547626  0.012857   0.000000   0.000000   0.000000   0         
268.1            268              822              47.250450  0.012857   0.000000   0.000000   0.000000   0         
803.1            803              740              8.361172   0.012857   0.000000   0.160000   0.000000   0         
860.1            860              859              51.559830  0.012857   0.000000   0.800000   0.000000   0         
59.1             59               354              61.167890  0.012857   0.000000   0.000000   0.000000   0         
770.1            770              863              43.657994  0.012857   0.000000   0.000000   0.000000   0         
868.1            868              DD2-6            53.413347  0.012857   0.000000   0.000000   0.000000   0         
872.1            872              746              49.387324  0.012857   0.000000   0.000000   0.000000   0         
817.1            817              873              9.433252   0.012857   0.000000   0.000000   0.000000   0         
876.1            876              199              52.090730  0.012857   0.000000   0.000000   0.000000   0         
877.1            877              878              41.907927  0.012857   0.000000   0.000000   0.000000   0         
301.1            301              790              78.570179  0.012857   0.000000   0.000000   0.000000   0         
879.1            879              880              87.079185  0.012857   0.000000   0.000000   0.000000   0         
883.1            883              357              57.609008  0.012857   0.000000   0.000000   0.000000   0         
357.1            357              533              76.286141  0.012857   0.000000   0.250000   0.000000   0         
2.1              2                885              33.062210  0.012857   0.000000   0.010000   0.000000   0         
886.1            886              887              42.750004  0.012857   0.000000   0.200000   0.000000   0         
899.1            899              900              35.743074  0.012857   0.000000   0.000000   0.000000   0         
908.1            908              909              101.735273 0.012857   0.000000   0.000000   0.000000   0         
913.1            913              912              43.166469  0.012857   0.000000   0.000000   0.000000   0         
916.1            916              917              47.358281  0.012857   0.000000   0.000000   0.000000   0         
920.1            920              921              43.039948  0.012857   0.000000   0.280000   0.000000   0         
925.1            925              926              15.096490  0.012857   0.000000   0.000000   0.000000   0         
928.1            928              929              55.398184  0.012857   0.000000   0.000000   0.000000   0         
931.2            931              930              49.610330  0.012857   0.000000   0.000000   0.000000   0         
461.1            461              879              98.309614  0.012857   0.000000   0.000000   0.000000   0         
314.1            314              934              27.518697  0.012857   0.000000   0.000000   0.000000   0         
944.1            944              945              54.373083  0.012857   0.000000   0.000000   0.000000   0         
947.1            947              DD2-2            27.901855  0.012857   0.000000   1.560000   0.000000   0         
948.1            948              949              54.597418  0.012857   0.000000   0.000000   0.000000   0         
963.1            963              964              42.415291  0.012857   0.000000   0.000000   0.000000   0         
978.1            978              832              41.130198  0.012857   0.000000   0.000000   0.000000   0         
744.2            744              981              56.565166  0.012857   0.000000   0.000000   0.000000   0         
982.1            982              983              59.013153  0.012857   0.000000   0.000000   0.000000   0         
340.1            340              986              106.367397 0.012857   0.000000   0.000000   0.000000   0         
534.1            534              990              59.983911  0.012857   0.000000   0.000000   0.000000   0         
991.1            991              982              61.373564  0.012857   0.000000   0.000000   0.000000   0         
993.1            993              740              16.062159  0.012857   0.000000   0.100000   0.000000   0         
934.1            934              745              27.180350  0.012857   0.000000   0.000000   0.000000   0         
747.1            747              万泉河-起点           29.555454  0.012857   0.000000   0.220000   0.000000   0         
740.1            740              999              7.358992   0.012857   0.000000   0.000000   0.000000   0         
1004.1           1004             1005             38.002012  0.012857   0.000000   0.000000   0.000000   0         
384.2            384              1007             49.686150  0.012857   0.000000   0.000000   0.000000   0         
1017.1           1017             321              51.853581  0.012857   0.000000   0.000000   0.000000   0         
1021.1           1021             773              74.409929  0.012857   0.000000   0.000000   0.000000   0         
1024.1           1024             991              61.062681  0.012857   0.000000   0.000000   0.000000   0         
1025.1           1025             706              66.553340  0.012857   0.000000   0.000000   0.000000   0         
1030.1           1030             1031             49.993335  0.012857   0.000000   0.000000   0.000000   0         
1033.2           1033             1032             50.140132  0.012857   0.000000   0.000000   0.000000   0         
1047.1           1047             566              48.694156  0.012857   0.000000   0.000000   0.000000   0         
1048.1           1048             1049             44.687387  0.012857   0.000000   0.570000   0.000000   0         
1050.1           1050             1021             89.146783  0.012857   0.000000   0.000000   0.000000   0         
1051.1           1051             1024             48.852884  0.012857   0.000000   0.000000   0.000000   0         
785.1            785              1054             40.016179  0.012857   0.000000   0.000000   0.000000   0         
995.1            995              330              56.226627  0.012857   0.000000   0.000000   0.000000   0         
1056.1           1056             1057             40.183488  0.012857   0.000000   0.000000   0.000000   0         
190.1            190              1058             56.149785  0.012857   0.000000   0.000000   0.000000   0         
1059.1           1059             1060             41.150186  0.012857   0.000000   0.000000   0.000000   0         
1063.1           1063             1064             38.120883  0.012857   0.000000   0.000000   0.000000   0         
1066.1           1066             1065             29.039856  0.012857   0.000000   0.000000   0.000000   0         
1069.1           1069             1070             62.663331  0.012857   0.000000   0.000000   0.000000   0         
1074.1           1074             1075             41.142928  0.012857   0.000000   0.000000   0.000000   0         
582.1            582              1084             89.501432  0.012857   0.000000   0.000000   0.000000   0         
1086.1           1086             11               49.872109  0.012857   0.000000   0.000000   0.000000   0         
1087.1           1087             1088             90.935305  0.012857   0.000000   0.000000   0.000000   0         
151.1            151              872              52.524976  0.012857   0.000000   0.000000   0.000000   0         
1095.1           1095             239              44.180018  0.012857   0.000000   0.000000   0.000000   0         
1099.1           1099             630              52.658513  0.012857   0.000000   0.290000   0.000000   0         
1100.1           1100             765              47.219869  0.012857   0.000000   0.000000   0.000000   0         
1103.1           1103             1104             54.026043  0.012857   0.000000   0.000000   0.000000   0         
322.1            322              112              48.289299  0.012857   0.000000   0.000000   0.000000   0         
37.1             37               1106             60.946986  0.012857   0.000000   0.000000   0.000000   0         
1116.1           1116             1117             50.564085  0.012857   0.000000   0.000000   0.000000   0         
677.1            677              1116             50.105621  0.012857   0.000000   0.080000   0.000000   0         
1121.1           1121             1122             49.869292  0.012857   0.000000   0.000000   0.000000   0         
1128.1           1128             1129             6.860394   0.012857   0.020000   0.000000   0.000000   0         
1134.1           1134             1135             35.211539  0.012857   0.000000   0.000000   0.000000   0         
1142.1           1142             1141             44.425567  0.012857   0.000000   0.000000   0.000000   0         
1070.1           1070             1147             33.028173  0.012857   0.000000   0.000000   0.000000   0         
1148.1           1148             1149             39.267587  0.012857   0.000000   0.000000   0.000000   0         
1150.1           1150             920              50.459363  0.012857   0.000000   0.000000   0.000000   0         
1153.1           1153             1154             55.370195  0.012857   0.000000   0.000000   0.000000   0         
1162.1           1162             1163             43.026793  0.012857   0.000000   0.000000   0.000000   0         
669.1            669              1174             44.093199  0.012857   0.000000   0.000000   0.000000   0         
304.1            304              1178             58.607535  0.012857   0.000000   0.000000   0.000000   0         
331.1            331              1182             16.394085  0.012857   0.000000   0.000000   0.000000   0         
1185.1           1185             1186             38.127348  0.012857   0.000000   0.110000   0.000000   0         
1191.1           1191             1192             49.877331  0.012857   0.000000   0.000000   0.000000   0         
1195.1           1195             1196             46.107291  0.012857   0.000000   0.000000   0.000000   0         
454.1            454              1197             100.731088 0.012857   0.000000   0.000000   0.000000   0         
1198.1           1198             995              35.639694  0.012857   0.000000   0.990000   0.000000   0         
671.1            671              1121             61.893667  0.012857   0.000000   0.000000   0.000000   0         
343.1            343              1047             55.804431  0.012857   0.000000   0.000000   0.000000   0         
1079.1           1079             1201             41.339627  0.012857   0.000000   0.000000   0.000000   0         
1202.1           1202             1185             41.121365  0.012857   0.000000   0.230000   0.000000   0         
463.1            463              255              48.497272  0.012857   0.000000   0.000000   0.000000   0         
1007.1           1007             1103             46.716774  0.012857   0.000000   0.000000   0.000000   0         
983.1            983              1198             41.261659  0.012857   0.000000   0.000000   0.000000   0         
415.1            415              460              72.474684  0.012857   0.000000   0.000000   0.000000   0         
1218.1           1218             1219             59.577453  0.012857   0.000000   0.530000   0.000000   0         
707.1            707              1088             33.812395  0.012857   0.000000   0.000000   0.000000   0         
61.1             61               1224             46.290263  0.012857   0.000000   0.000000   0.000000   0         
1226.1           1226             1227             38.076842  0.012857   0.000000   0.180000   0.000000   0         
1228.1           1228             1229             69.068622  0.012857   0.000000   0.000000   0.000000   0         
1230.1           1230             1231             43.220985  0.012857   0.000000   0.000000   0.000000   0         
1235.1           1235             1234             52.864530  0.012857   0.000000   0.000000   0.000000   0         
430.1            430              1240             42.005820  0.012857   0.000000   0.000000   0.000000   0         
1251.1           1251             837              25.662719  0.012857   0.000000   0.020000   0.000000   0         
1260.1           1260             1261             43.243378  0.012857   0.000000   0.000000   0.000000   0         
880.1            880              58               88.744010  0.012857   0.000000   0.000000   0.000000   0         