[JUNCTIONS]
;;Name           Elevation  MaxDepth   InitDepth  SurDepth   Aponded   
;;-------------- ---------- ---------- ---------- ---------- ----------
443              49.810000  2.220000   0.000000   0.000000   32360.781600
9822             46.420000  3.700000   0.000000   0.000000   12599.985169
4857             46.350000  3.430000   0.000000   0.000000   16514.140619
6160             46.070000  3.380000   0.000000   0.000000   12597.181335
4442             45.960000  4.160000   0.000000   0.000000   14872.450947
2986             45.190000  2.871000   0.000000   0.000000   51480.338255
3026             45.190000  3.232000   0.000000   0.000000   41770.273507
2930             45.200000  3.222000   0.000000   0.000000   26296.864630
2931             45.190000  3.675000   0.000000   0.000000   15108.042351
6899             45.190000  3.675000   0.000000   0.000000   12018.743084
981              45.190000  3.675000   0.000000   0.000000   13208.251013
744              45.250000  4.039000   0.000000   0.000000   12371.409948
745              45.240000  4.180000   0.000000   0.000000   6527.353433
6055             46.070000  4.680000   0.000000   0.000000   10479.764842
6357             46.290000  4.460000   0.000000   0.000000   9940.810220
28885            46.750000  2.090000   0.000000   0.000000   59157.947449
1720             46.340000  4.410000   0.000000   0.000000   649.159329
5899             45.050000  5.573000   0.000000   0.000000   26044.045269
5417             45.840000  4.330000   0.000000   0.000000   22155.376980
23               44.640000  2.770000   0.000000   0.000000   160530.689036
4734             45.390000  4.900000   0.000000   0.000000   39026.955694
2486             44.220000  3.150000   0.000000   0.000000   3568.708206
4703             45.040000  5.380000   0.000000   0.000000   36916.719521
92               44.440000  4.270000   0.000000   0.000000   88685.034589
407              44.400000  4.150000   0.000000   0.000000   28185.251638
152              44.520000  3.860000   0.000000   0.000000   38879.431473
153              44.500000  3.850000   0.000000   0.000000   40898.490362
3262             44.910000  3.021000   0.000000   0.000000   69590.648680
13794            49.620000  2.200000   0.000000   0.000000   2645.185588
14163            50.780000  1.380000   0.000000   0.000000   8217.692358
1163             48.240000  2.640000   0.000000   0.000000   21366.824217
2419             48.270000  2.680000   0.000000   0.000000   18546.108259
2420             48.140000  2.810000   0.000000   0.000000   19772.927959
1502             48.170000  2.580000   0.000000   0.000000   15030.287194
2021             44.030000  3.890000   0.000000   0.000000   13931.176691
448              49.090000  1.780000   0.000000   0.000000   2809.172216
630              47.740000  3.087000   0.000000   0.000000   123.730409
1474             49.930000  0.897000   0.000000   0.000000   984.239407
2020             44.140000  3.780000   0.000000   0.000000   8751.569078
3311             42.720000  3.330000   0.000000   0.000000   26711.573309
599              47.760000  3.070000   0.000000   0.000000   4743.107410
598              47.760000  3.070000   0.000000   0.000000   6952.828236
2401             43.130000  4.730000   0.000000   0.000000   3942.329020
4358             43.143200  4.236800   0.000000   0.000000   8067.157693
5295             46.480000  3.960000   0.000000   0.000000   8426.212906
18902            47.860000  3.070000   0.000000   0.000000   6919.745979
4780             47.120000  3.750000   0.000000   0.000000   8147.768633
20458            48.100000  2.400000   0.000000   0.000000   5832.884182
928              43.760000  4.100000   0.000000   0.000000   7156.256703
5269             44.720000  1.330000   0.000000   0.000000   4795.378093
4360             42.800000  1.670000   0.000000   0.000000   1956.233427
2586             44.500000  1.110000   0.000000   0.000000   10741.580967
929              43.740000  3.840000   0.000000   0.000000   11273.531109
4592             44.240000  1.810000   0.000000   0.000000   2564.198299
3184             44.210000  2.350000   0.000000   0.000000   4836.805540
2597             44.300000  6.400000   0.000000   0.000000   9633.962642
3626             44.940000  2.340000   0.000000   0.000000   96103.294797
7772             45.260000  4.580000   0.000000   0.000000   9581.715189
200              45.000000  3.282000   0.000000   0.000000   20175.603840
3070             45.770000  1.966000   0.000000   0.000000   1089.318852
3799             43.870000  1.350000   0.000000   0.000000   2203.616980
384              45.070000  3.487000   0.000000   0.000000   21109.759763
3723             44.200000  1.450000   0.000000   0.000000   4265.907653
4907             43.590000  1.240000   0.000000   0.000000   5183.257270
5470             43.180000  1.290000   0.000000   0.000000   9716.746549
2810             43.110000  2.159000   0.000000   0.000000   5175.335633
3020             41.870000  3.950000   0.000000   0.000000   3393.096096
2818             42.470000  3.350000   0.000000   0.000000   2552.579526
1498             43.760000  3.155000   0.000000   0.000000   3451.649194
2819             43.180000  3.295000   0.000000   0.000000   3968.064050
1497             43.770000  3.145000   0.000000   0.000000   5116.229594
2384             44.110000  3.240000   0.000000   0.000000   13748.561645
9668             45.375750  5.454250   0.000000   0.000000   30520.884323
7991             47.000000  3.610000   0.000000   0.000000   6100.787299
7687             43.880000  4.030000   0.000000   0.000000   6040.922688
1308             43.740000  4.050000   0.000000   0.000000   20158.703672
1251             48.940000  2.050000   0.000000   0.000000   140503.179725
740              45.540000  5.110000   0.000000   0.000000   258.844152
3291             43.970000  2.540000   0.000000   0.000000   3947.589973
769              44.470000  4.330000   0.000000   0.000000   17922.547373
1921             43.750000  3.440000   0.000000   0.000000   16124.337457
2959             42.850000  6.070000   0.000000   0.000000   4616.360853
1482             42.270000  2.680000   0.000000   0.000000   8373.105113
31672            42.680000  2.259000   0.000000   0.000000   3211.431264
4353             44.720000  0.840000   0.000000   0.000000   4278.445696
3992             40.640000  3.502000   0.000000   0.000000   3384.517076
4772             43.430000  3.750000   0.000000   0.000000   16915.399143
4004             43.420000  3.870000   0.000000   0.000000   6570.057987
3332             44.620000  3.670000   0.000000   0.000000   6228.011065
3109             44.650000  2.410000   0.000000   0.000000   1235.703621
3904             44.100000  2.154000   0.000000   0.000000   1785.428518
3118             40.620000  3.700000   0.000000   0.000000   755.874858
3033             42.120000  4.420000   0.000000   0.000000   1698.358190
3032             42.120000  6.060000   0.000000   0.000000   2097.533413
3937             42.880000  2.090000   0.000000   0.000000   2131.469771
3817             42.520000  4.300000   0.000000   0.000000   1909.670625
3008             43.190000  4.200000   0.000000   0.000000   1340.291875
3063             43.480000  3.150000   0.000000   0.000000   9061.192934
947              42.780000  6.120000   0.000000   0.000000   16842.974046
3007             43.170000  4.220000   0.000000   0.000000   17481.571986
4325             40.190000  3.930000   0.000000   0.000000   553.878501
2907             42.220000  4.070000   0.000000   0.000000   1739.184531
3507             42.220000  4.410000   0.000000   0.000000   1846.876193
3613             41.790000  5.930000   0.000000   0.000000   3746.271814
14355            41.360000  4.750000   0.000000   0.000000   740.017029
16139            40.390000  4.690000   0.000000   0.000000   0.000000  
31900            40.340000  5.050000   0.000000   0.000000   436.587201
24405            44.700000  2.040000   0.000000   0.000000   1996.072400
5667             40.920000  3.290000   0.000000   0.000000   581.293591
5828             41.450000  8.480000   0.000000   0.000000   17559.952714
26796            40.460000  4.480000   0.000000   0.000000   776.133476
26852            40.840000  4.390000   0.000000   0.000000   2010.676327
4475             40.760000  3.610000   0.000000   0.000000   808.319722
1191             44.590000  5.798000   0.000000   0.000000   7498.593607
2                43.750000  5.040000   0.000000   0.000000   15740.950435
885              43.750000  5.470000   0.000000   0.000000   8985.450982
28395            47.160000  1.500000   0.000000   0.000000   117800.713480
20711            43.770000  3.090000   0.000000   0.000000   1497.397403
5368             42.840000  3.820000   0.000000   0.000000   3492.151108
5532             42.890000  3.770000   0.000000   0.000000   2813.243782
6391             42.320000  3.990000   0.000000   0.000000   4291.255602
4807             42.360000  3.950000   0.000000   0.000000   7370.477891
20744            41.980000  2.020000   0.000000   0.000000   2448.033636
1603             44.680000  2.480000   0.000000   0.000000   9376.857859
118              44.680000  2.480000   0.000000   0.000000   7139.110692
1616             43.490000  2.040000   0.000000   0.000000   15069.373353
1615             43.490000  2.000000   0.000000   0.000000   5709.654522
1848             43.330000  2.010000   0.000000   0.000000   19349.586765
1932             43.240000  2.190000   0.000000   0.000000   18669.587869
1940             42.910000  2.630000   0.000000   0.000000   26674.204646
539              42.960000  2.240000   0.000000   0.000000   17810.730099
541              42.780000  2.270000   0.000000   0.000000   12248.137810
1945             42.830000  2.220000   0.000000   0.000000   13291.813005
529              42.680000  2.100000   0.000000   0.000000   2789.727432
1941             42.650000  2.170000   0.000000   0.000000   8987.709914
1815             44.170000  1.350000   0.000000   0.000000   6693.879268
1687             43.920000  1.610000   0.000000   0.000000   10260.820092
26957            50.040000  2.200000   0.000000   0.000000   9653.709053
2113             44.640000  1.820000   0.000000   0.000000   12333.460959
1929             47.960000  1.820000   0.000000   0.000000   540.711896
339              42.890000  3.530000   0.000000   0.000000   49898.061456
1283             42.480000  3.430000   0.000000   0.000000   1885.104114
414              41.690000  3.622000   0.000000   0.000000   8112.090051
25026            40.410000  2.900000   0.000000   0.000000   963.901918
16196            41.470000  2.860000   0.000000   0.000000   811.964545
27114            40.470000  2.580000   0.000000   0.000000   20592.501125
28018            32.820000  9.380000   0.000000   0.000000   4305.576223
7144             45.250000  2.340000   0.000000   0.000000   21006.192582
20858            44.140000  4.370000   0.000000   0.000000   12800.358298
703              39.620000  5.410000   0.000000   0.000000   1430.370661
11313            39.100000  3.090000   0.000000   0.000000   936.641504
9384             38.680000  3.080000   0.000000   0.000000   12640.449547
6646             38.740000  2.800000   0.000000   0.000000   810.941286
4796             38.400000  2.890000   0.000000   0.000000   781.235043
1556             38.180000  3.500000   0.000000   0.000000   28499.327563
4393             38.300000  3.290000   0.000000   0.000000   738.138024
12               37.640000  1.883000   0.000000   0.000000   5519.118139
462              37.670000  1.853000   0.000000   0.000000   3783.787202
27193            35.110000  3.050000   0.000000   0.000000   3261.132625
27294            36.790000  1.570000   0.000000   0.000000   4977.094551
4862             38.250000  3.730000   0.000000   0.000000   0.000000  
9143             38.420000  3.560000   0.000000   0.000000   13711.835427
31351            35.580000  4.560000   0.000000   0.000000   32047.344923
5024             39.950000  3.200000   0.000000   0.000000   36670.749530
6148             35.230000  5.350000   0.000000   0.000000   203619.919351
30802            35.500000  4.610000   0.000000   0.000000   1555.808438
27662            37.980000  0.780000   0.000000   0.000000   122155.000000
2863             35.380000  5.010000   0.000000   0.000000   5900.443386
6818             42.860000  3.760000   0.000000   0.000000   1230.508015
3517             34.800000  5.520000   0.000000   0.000000   2153.243952
5889             43.220000  2.910000   0.000000   0.000000   233934.343843
29785            41.290000  4.770000   0.000000   0.000000   205509.616377
31948            29.280000  4.800000   0.000000   0.000000   2480.233289
7128             44.920000  1.920000   0.000000   0.000000   190467.111606
31617            28.200000  4.010000   0.000000   0.000000   18798.535705
21833            27.510000  4.560000   0.000000   0.000000   2444.272749
30237            38.440000  5.440000   0.000000   0.000000   8950.411849
6942             38.520000  5.160000   0.000000   0.000000   5821.463276
3661             37.700000  2.750000   0.000000   0.000000   55831.786994
1646             34.620000  3.270000   0.000000   0.000000   17687.052885
8374             41.330000  1.430000   0.000000   0.000000   382446.382259
24               44.570000  2.840000   0.000000   0.000000   10791.535409
43               44.140000  6.120000   0.000000   0.000000   16504.047748
49               41.120000  6.090000   0.000000   0.000000   18511.450339
59               41.080000  3.060000   0.000000   0.000000   2774.387172
61               44.540000  5.050000   0.000000   0.000000   21072.644893
67               48.340000  2.780000   0.000000   0.000000   9267.362468
69               40.720000  2.830000   0.000000   0.000000   2574.073978
89               48.080000  2.640000   0.000000   0.000000   7300.759539
113              47.360000  4.910000   0.000000   0.000000   13635.029719
131              40.297000  5.203000   0.000000   0.000000   32496.125035
135              41.430000  3.789000   0.000000   0.000000   8964.669567
151              46.970000  4.910000   0.000000   0.000000   14678.628144
206              37.260000  2.670000   0.000000   0.000000   9229.267482
240              43.560000  5.480000   0.000000   0.000000   16484.084547
248              43.530000  5.360000   0.000000   0.000000   21857.138465
252              40.020000  5.220000   0.000000   0.000000   5438.922639
256              37.480000  1.870000   0.000000   0.000000   9973.681688
268              44.380000  6.660000   0.000000   0.000000   10621.424081
301              42.170000  6.940000   0.000000   0.000000   23515.361517
304              43.430000  5.300000   0.000000   0.000000   29542.537285
305              37.050000  3.220000   0.000000   0.000000   4803.995649
314              45.740000  3.570000   0.000000   0.000000   7010.259146
316              42.098450  6.911550   0.000000   0.000000   11532.618801
300              42.220000  6.560000   0.000000   0.000000   18794.178038
322              47.410000  5.160000   0.000000   0.000000   25895.944874
326              40.570000  6.080000   0.000000   0.000000   23813.192970
251              40.090000  5.340000   0.000000   0.000000   9240.789282
334              40.630000  4.000000   0.000000   0.000000   2251.575809
337              47.270000  3.730000   0.000000   0.000000   2865.913157
340              42.890000  3.180000   0.000000   0.000000   23648.149563
345              47.380000  3.260000   0.000000   0.000000   5575.561549
351              43.830000  3.863000   0.000000   0.000000   18664.058473
355              40.760000  3.150000   0.000000   0.000000   560.160823
367              46.360000  4.640000   0.000000   0.000000   2041.332337
379              46.040000  4.960000   0.000000   0.000000   6979.073939
415              41.610000  3.820000   0.000000   0.000000   7279.100391
308              47.530000  4.512000   0.000000   0.000000   57210.632114
444              49.740000  2.290000   0.000000   0.000000   33318.817396
454              41.490000  6.720000   0.000000   0.000000   1455.414325
456              37.100000  5.270000   0.000000   0.000000   21256.583775
461              41.520000  3.240000   0.000000   0.000000   500.398591
463              37.630000  2.520000   0.000000   0.000000   5865.122066
452              47.470000  3.357000   0.000000   0.000000   1411.698269
477              40.460000  4.760000   0.000000   0.000000   1457.861985
487              43.435000  6.695000   0.000000   0.000000   94496.061260
501              45.830000  5.170000   0.000000   0.000000   9919.640000
510              36.920000  5.140000   0.000000   0.000000   18458.480130
512              41.770000  6.470000   0.000000   0.000000   36921.362646
205              37.410000  2.520000   0.000000   0.000000   10970.148746
534              41.830000  3.500000   0.000000   0.000000   15574.119846
540              42.930000  2.120000   0.000000   0.000000   17616.538661
285              44.100000  5.960000   0.000000   0.000000   40784.981744
580              48.570000  2.460000   0.000000   0.000000   4598.735550
582              38.470000  5.380000   0.000000   0.000000   24783.314424
592              47.100000  4.262000   0.000000   0.000000   11453.120824
601              48.330000  2.310000   0.000000   0.000000   888.442656
603              44.310000  5.850000   0.000000   0.000000   30154.613516
607              47.050000  4.180000   0.000000   0.000000   5887.717727
649              49.020000  1.910000   0.000000   0.000000   8313.091279
657              43.450000  2.620000   0.000000   0.000000   1176.803720
669              41.660000  6.890000   0.000000   0.000000   17846.416129
671              44.920000  4.860000   0.000000   0.000000   2756.436348
677              47.450000  3.860000   0.000000   0.000000   22592.971107
676              47.480000  4.150000   0.000000   0.000000   21199.484921
581              38.620000  5.180000   0.000000   0.000000   15120.184631
707              43.420000  5.620000   0.000000   0.000000   2932.152217
728              40.200000  5.550000   0.000000   0.000000   12428.459780
747              46.710000  4.650000   0.000000   0.000000   32360.781600
749              47.020000  3.980000   0.000000   0.000000   589.073867
758              48.820000  2.540000   0.000000   0.000000   10215.089676
766              43.980000  4.760000   0.000000   0.000000   34470.949804
770              40.970000  6.390000   0.000000   0.000000   22508.744559
772              44.220000  4.340000   0.000000   0.000000   2429.318211
777              48.340000  3.290000   0.000000   0.000000   6649.683146
739              45.680000  5.320000   0.000000   0.000000   3866.931277
785              49.580000  2.300000   0.000000   0.000000   25257.823350
68               40.800000  2.770000   0.000000   0.000000   7728.281759
748              47.260000  3.740000   0.000000   0.000000   1840.781599
791              42.040000  6.770000   0.000000   0.000000   38459.568553
378              46.210000  4.790000   0.000000   0.000000   3477.135679
783              45.730000  5.470000   0.000000   0.000000   5703.731982
794              44.210000  5.510000   0.000000   0.000000   59109.487806
797              48.750000  3.675000   0.000000   0.000000   28009.294955
801              47.030000  4.500000   0.000000   0.000000   4463.628842
511              41.920000  6.750000   0.000000   0.000000   46687.471752
803              46.500000  4.450000   0.000000   0.000000   907.754403
350              43.930000  3.763000   0.000000   0.000000   21752.856331
788              40.556200  3.353800   0.000000   0.000000   2196.950566
817              47.930000  3.050000   0.000000   0.000000   2394.281869
602              44.330000  5.020000   0.000000   0.000000   17639.825237
826              44.150000  4.410000   0.000000   0.000000   521.020301
776              48.420000  3.910000   0.000000   0.000000   10842.559527
579              48.660000  2.370000   0.000000   0.000000   1729.918635
267              44.430000  6.610000   0.000000   0.000000   8814.327119
822              44.360000  4.850000   0.000000   0.000000   17768.111550
354              41.070000  2.930000   0.000000   0.000000   2517.177127
863              40.860000  5.850000   0.000000   0.000000   17450.397466
746              46.780000  4.580000   0.000000   0.000000   16973.206000
873              47.040000  3.940000   0.000000   0.000000   2313.153617
199              45.010000  3.079000   0.000000   0.000000   24084.394527
878              45.970000  5.030000   0.000000   0.000000   12146.409295
790              42.100000  6.630000   0.000000   0.000000   30189.920076
880              41.310000  2.870000   0.000000   0.000000   1311.029550
357              42.270000  3.330000   0.000000   0.000000   15779.672551
533              41.870000  3.680000   0.000000   0.000000   23245.534195
887              43.480000  3.410000   0.000000   0.000000   6496.106918
931              43.930000  3.850000   0.000000   0.000000   15040.577532
879              41.420000  3.030000   0.000000   0.000000   847.167765
934              45.410000  3.900000   0.000000   0.000000   3577.620266
964              47.750000  3.290000   0.000000   0.000000   5302.435906
832              48.520000  3.320000   0.000000   0.000000   13008.736959
983              49.150000  2.526000   0.000000   0.000000   33809.487995
986              42.730000  3.080000   0.000000   0.000000   18030.194971
990              41.730000  3.450000   0.000000   0.000000   8071.521746
982              49.230000  2.830000   0.000000   0.000000   38554.512154
999              45.530000  5.120000   0.000000   0.000000   800.755231
1005             48.480000  2.100000   0.000000   0.000000   17520.015912
1007             44.910000  4.260000   0.000000   0.000000   20232.674023
321              47.420000  4.990000   0.000000   0.000000   31479.967478
773              39.970000  3.150000   0.000000   0.000000   738.591713
991              49.310000  2.810000   0.000000   0.000000   34051.776469
706              43.440000  5.600000   0.000000   0.000000   6963.296149
566              44.230000  5.110000   0.000000   0.000000   42053.302218
1049             42.130000  4.650000   0.000000   0.000000   1816.872703
1021             40.170000  3.150000   0.000000   0.000000   899.704793
1024             49.400000  2.810000   0.000000   0.000000   21758.414472
1054             49.500000  2.380000   0.000000   0.000000   32415.488067
1084             38.110000  5.070000   0.000000   0.000000   40408.397875
11               37.970000  2.290000   0.000000   0.000000   8520.650875
1088             42.430000  6.590000   0.000000   0.000000   1155.067889
872              46.810000  5.160000   0.000000   0.000000   17345.836481
239              43.660000  5.510000   0.000000   0.000000   13837.673421
765              44.000000  4.850000   0.000000   0.000000   27920.017520
1104             44.530000  5.160000   0.000000   0.000000   23654.203397
112              47.390000  5.000000   0.000000   0.000000   19780.111232
1106             47.890000  4.830000   0.000000   0.000000   75424.322456
1117             47.270000  4.064000   0.000000   0.000000   26196.617957
1116             47.270000  3.990000   0.000000   0.000000   25253.239682
1122             44.780000  4.800000   0.000000   0.000000   16786.419472
1129             43.020000  5.560000   0.000000   0.000000   11946.883363
1174             41.610000  7.180000   0.000000   0.000000   5828.418128
1178             43.340000  5.170000   0.000000   0.000000   35566.489721
1186             44.100000  3.250000   0.000000   0.000000   6011.549478
1192             44.500000  5.750000   0.000000   0.000000   2230.995304
1197             41.340000  6.410000   0.000000   0.000000   9537.240890
1121             44.820000  4.850000   0.000000   0.000000   9617.021437
1047             44.260000  5.080000   0.000000   0.000000   37863.358025
1201             43.670000  3.834000   0.000000   0.000000   15052.141617
1185             44.300000  2.770000   0.000000   0.000000   9279.106193
255              37.560000  2.100000   0.000000   0.000000   8275.970441
1103             44.560000  4.820000   0.000000   0.000000   24167.788334
460              41.570000  3.590000   0.000000   0.000000   729.665642
1224             44.510000  5.120000   0.000000   0.000000   38958.852001
837              48.860000  2.130000   0.000000   0.000000   7025.063875
1261             47.720000  3.010000   0.000000   0.000000   10972.461967
58               41.220000  2.920000   0.000000   0.000000   1284.743502
993              46.850000  4.150000   0.000000   0.000000   210.099335
1286             45.370000  5.280000   0.000000   0.000000   530.580421
418              47.840000  4.255000   0.000000   0.000000   63741.658153
1048             42.720000  4.780000   0.000000   0.000000   6125.010547
784              49.640000  2.280000   0.000000   0.000000   32360.781618
1304             47.920000  2.720000   0.000000   0.000000   669.870109
1310             44.360000  3.410000   0.000000   0.000000   23617.196357
1321             47.160000  3.710000   0.000000   0.000000   9875.399024
1327             48.420000  2.575000   0.000000   0.000000   12814.490413
1331             42.020000  1.300000   0.000000   0.000000   1892.623451
1326             48.430000  2.565000   0.000000   0.000000   22300.185840
1366             48.280000  2.440000   0.000000   0.000000   16232.835641
455              37.240000  5.400000   0.000000   0.000000   30303.292332
42               44.270000  6.220000   0.000000   0.000000   12145.512236
1392             40.800000  4.380000   0.000000   0.000000   9819.581772
1162             48.350000  2.530000   0.000000   0.000000   25874.970178
1410             48.670000  2.200000   0.000000   0.000000   15988.875958
1416             48.430000  2.010000   0.000000   0.000000   20884.268292
800              47.030000  4.370000   0.000000   0.000000   7306.987585
1100             44.080000  4.930000   0.000000   0.000000   34318.644617
793              45.790000  5.210000   0.000000   0.000000   7617.013584
1434             47.970000  2.835000   0.000000   0.000000   14604.764894
1438             48.390000  2.070000   0.000000   0.000000   20813.622399
453              41.540000  7.020000   0.000000   0.000000   626.297127
877              46.000000  5.000000   0.000000   0.000000   8631.599890
1445             48.340000  2.250000   0.000000   0.000000   16652.850919
48               41.190000  6.190000   0.000000   0.000000   13707.982875
768              44.510000  4.620000   0.000000   0.000000   17474.826883
1451             42.840000  5.260000   0.000000   0.000000   57259.236561
397              44.700000  3.650000   0.000000   0.000000   38696.682873
771              44.230000  4.210000   0.000000   0.000000   5187.807285
327              40.360000  5.730000   0.000000   0.000000   20271.578081
1477             49.210000  2.691000   0.000000   0.000000   12942.204633
500              45.900000  5.100000   0.000000   0.000000   13109.693506
1486             34.410000  5.220000   0.000000   0.000000   8062.726835
1488             43.130000  2.950000   0.000000   0.000000   6677.070724
1492             43.500000  2.975000   0.000000   0.000000   1800.487802
1519             39.950000  6.170000   0.000000   0.000000   15170.283415
1004             48.540000  2.490000   0.000000   0.000000   7866.488937
469              47.620000  3.207000   0.000000   0.000000   2133.550084
352              42.790000  4.770000   0.000000   0.000000   11398.861125
1095             43.740000  5.480000   0.000000   0.000000   12618.016697
1409             48.720000  2.180000   0.000000   0.000000   7720.472744
1086             38.090000  3.590000   0.000000   0.000000   9094.873444
1087             42.430000  6.270000   0.000000   0.000000   12756.726569
1561             43.270000  5.130000   0.000000   0.000000   58477.242619
1574             44.800000  3.150000   0.000000   0.000000   4033.697495
1578             47.930000  2.980000   0.000000   0.000000   13869.808939
1579             48.370000  2.625000   0.000000   0.000000   9942.971030
1591             47.990000  3.810000   0.000000   0.000000   2920.573041
1595             42.900000  5.710000   0.000000   0.000000   9220.888285
1292             47.880000  4.215000   0.000000   0.000000   70536.742549
1202             44.620000  2.450000   0.000000   0.000000   12399.216752
524              41.850000  4.560000   0.000000   0.000000   32863.568489
1609             44.040000  1.490000   0.000000   0.000000   11981.558775
1621             44.800000  2.900000   0.000000   0.000000   856.684660
1                43.870000  5.510000   0.000000   0.000000   33180.035682
1417             47.290000  4.920000   0.000000   0.000000   13348.824104
1641             43.730000  5.007000   0.000000   0.000000   28367.791928
1025             43.590000  5.031000   0.000000   0.000000   17727.434406
1644             42.970000  2.780000   0.000000   0.000000   35380.629953
1647             34.550000  3.340000   0.000000   0.000000   12579.093126
1649             35.280000  5.040000   0.000000   0.000000   2818.731456