[SUBCATCHMENTS]
;;Name           Rain Gage        Outlet           Area     %Imperv  Width    %Slope   CurbLen  SnowPack        
;;-------------- ---------------- ---------------- -------- -------- -------- -------- -------- ----------------
Sgreen-1         4                DD1-1            61.603331 0.000000 442.819932 0.000000 0.000000                 
Sgreen-2         3                DD2-2            23.198000 0.000000 271.737976 0.000000 0.000000                 
Sgreen-3         5                DD1-3            58.232000 0.000000 430.532476 0.000000 0.000000                 
Sgreen-4         3                DD2-2            39.358000 0.000000 353.949721 0.000000 0.000000                 
Sgreen-5         4                DD1-7            160.400000 0.000000 714.541152 0.000000 0.000000                 
Sgreen-6         2                JD8              1975.000000 0.000000 2507.313353 0.000000 0.000000                 
Sgreen-7         1                清洋河-中            132.000000 0.000000 648.204481 0.000000 0.000000                 
Sgreen-8         1                DD12             82.150000 0.000000 511.362466 0.000000 0.000000                 
Sgreen-9         2                9536             12.408000 0.000000 198.735731 0.085903 0.000000                 
Sgreen-10        2                DD16             113.460000 0.000000 600.961227 0.000000 0.000000                 
Sgreen-11        5                DD5              178.245000 0.000000 753.240637 0.000000 0.000000                 
Sgreen-13        5                DD1              954.269000 0.000000 1742.851849 0.000000 0.000000                 
Sgreen-14        1                DD16             56.800000 0.000000 425.205851 0.000000 0.000000                 
Sgreen-15        5                DD6              425.700000 0.000000 1164.064081 0.000000 0.000000                 
Sgreen-16        2                DD18             59.429000 0.000000 434.934917 0.000000 0.000000                 
Sgreen-18        2                DD19             43.514000 0.000000 372.168462 0.000000 0.000000                 
Sgreen-19        6                DD9              316.000000 0.000000 1002.925341 0.000000 0.000000                 
Sgreen-20        6                waihuan上2        386.000000 0.000000 1108.456657 0.000000 0.000000                 
Sgreen-21        4                DD1-2            21.356000 0.000000 260.726407 0.000000 0.000000                 
Sgreen-22        3                DD2-1            22.494000 0.000000 267.582933 0.000000 0.000000                 
Sgreen-23        4                DD1-3            6.120000 0.000000 139.572795 0.000000 0.000000                 
Sgreen-24        5                DD7              651.000000 0.000000 1439.512890 0.000000 0.000000                 
Sgreen-25        5                DD1-4            23.354000 0.000000 272.650125 0.000000 0.000000                 
Sgreen-26        5                DD3              115.974000 0.000000 607.582675 0.000000 0.000000                 
Sgreen-27        6                DD11             10.990000 0.000000 187.035442 0.000000 0.000000                 
Sgreen-28        6                DD11             27.829000 0.000000 297.628053 0.000000 0.000000                 
Sgreen-29        6                万泉河-出口           0.000000 0.000000 0.000000 0.000000 0.000000                 
S26915           1                26915            0.320463 100.000000 31.938486 0.148245 0.000000                 
S12938           5                12938            0.773062 100.000000 49.605783 0.431824 0.000000                 
S29596           2                29596            1.923500 100.000000 78.247624 0.979798 0.000000                 
S2198            6                2198             1.537382 100.000000 69.954555 0.143667 0.000000                 
S29612           6                29612            61.549844 100.000000 442.627654 0.267056 0.000000                 
S27246           2                27246            0.084002 100.000000 16.351969 0.520512 0.000000                 
S27294           1                27294            0.497709 100.000000 39.802744 1.299150 0.000000                 
S19699           6                19699            0.283286 100.000000 30.028800 0.186918 0.000000                 
S4433            6                4433             4.058694 100.000000 113.662760 0.099786 0.000000                 
S13993           5                13993            1.171945 100.000000 61.077150 0.512568 0.000000                 
S9749            4                9749             1.976110 100.000000 79.310491 0.364568 0.000000                 
S6475            3                6475             0.819092 100.000000 51.061251 0.354654 0.000000                 
S37              4                37               6.627714 100.000000 145.246929 0.000000 0.000000                 
S443             4                443              3.236078 100.000000 101.492644 0.000000 0.000000                 
S18763           4                18763            0.038654 100.000000 11.092292 0.782236 0.000000                 
S30490           5                30490            2.502450 100.000000 89.249911 0.274044 0.000000                 
S7991            4                7991             0.610079 100.000000 44.067459 0.023724 0.000000                 
S501             4                501              0.991964 100.000000 56.191810 0.000000 0.000000                 
S6018            3                6018             1.263563 100.000000 63.419613 0.777305 0.000000                 
S4546            3                4546             2.036282 100.000000 80.508918 7.503603 0.000000                 
S3292            3                3292             0.649070 100.000000 45.453881 0.276095 0.000000                 
S2520            1                2520             0.142228 100.000000 21.277339 0.000000 0.000000                 
S13774           1                13774            0.389116 100.000000 35.193662 0.224013 0.000000                 
S339             3                339              4.989806 100.000000 126.027958 1.451116 0.000000                 
S22702           3                22702            0.209430 100.000000 25.819280 0.161606 0.000000                 
S12628           4                12628            0.965200 100.000000 55.428570 0.312006 0.000000                 
S7165            5                7165             1.874165 100.000000 77.237633 0.797922 0.000000                 
S27241           5                27241            0.629791 100.000000 44.773720 0.116623 0.000000                 
S22377           6                22377            1.298763 100.000000 64.296889 0.287822 0.000000                 
S12581           6                12581            1.221329 100.000000 62.350715 0.265716 0.000000                 
S26926           1                26926            0.189429 100.000000 24.555484 0.167850 0.000000                 
S31196           2                31196            6.851696 100.000000 147.680827 0.506856 0.000000                 
S21710           1                21710            0.718030 100.000000 47.807541 1.184447 0.000000                 
S16549           1                16549            0.550571 100.000000 41.863133 0.305949 0.000000                 
S5375            6                5375             2.409097 100.000000 87.569360 0.000000 0.000000                 
S19508           5                19508            2.024630 100.000000 80.278259 0.159167 0.000000                 
S15588           5                15588            0.842596 100.000000 51.788680 0.370529 0.000000                 
S29785           6                29785            20.550962 100.000000 255.765014 0.000000 0.000000                 
S29586           6                29586            0.611181 100.000000 44.107250 0.280956 0.000000                 
S6520            2                6520             1.880599 100.000000 77.370111 0.811621 0.000000                 
S28173           2                28173            0.078724 100.000000 15.829930 0.382425 0.000000                 
S27628           2                27628            1.443500 100.000000 67.784978 0.408825 0.000000                 
S27581           2                27581            0.931000 100.000000 54.437717 1.397347 0.000000                 
S3578            6                3578             7.600397 100.000000 155.540401 0.200073 0.000000                 
S7229            6                7229             3.379511 100.000000 103.717494 0.000000 0.000000                 
S4075            6                4075             5.634691 100.000000 133.924522 0.277380 0.000000                 
S10629           6                10629            3.353134 100.000000 103.311934 0.067892 0.000000                 
S27562           2                27562            0.221000 100.000000 26.522912 0.171408 0.000000                 
S15770           6                15770            1.600157 100.000000 71.368458 0.045570 0.000000                 
S12376           6                12376            3.267981 100.000000 101.991706 0.305299 0.000000                 
S6766            6                6766             5.932624 100.000000 137.419540 0.503026 0.000000                 
S5576            6                5576             1.248093 100.000000 63.030181 0.000000 0.000000                 
S5528            1                5528             6.406602 100.000000 142.803529 0.038923 0.000000                 
S22981           1                22981            1.450578 100.000000 67.950953 0.167592 0.000000                 
S22018           2                22018            0.194481 100.000000 24.880784 0.974056 0.000000                 
S27370           2                27370            0.051620 100.000000 12.818460 2.731990 0.000000                 
S27548           2                27548            0.592000 100.000000 43.409613 1.913448 0.000000                 
S28511           2                28511            2.171833 100.000000 83.145418 0.125446 0.000000                 
S21758           1                21758            9.649563 100.000000 175.258421 6.229903 0.000000                 
S28830           1                28830            26.329449 100.000000 289.498255 0.618414 0.000000                 
S192             6                192              2.801036 100.000000 94.424431 0.478458 0.000000                 
S16492           6                16492            2.162780 100.000000 82.971942 0.281886 0.000000                 
S17745           6                17745            2.579248 100.000000 90.609061 0.290193 0.000000                 
S16012           6                16012            1.190976 100.000000 61.571041 0.179446 0.000000                 
S17324           6                17324            4.962194 100.000000 125.678773 0.284096 0.000000                 
S2248            6                2248             1.684662 100.000000 73.228717 0.068564 0.000000                 
S28679           6                28679            2.332997 100.000000 86.175170 0.680814 0.000000                 
S26151           1                26151            1.216193 100.000000 62.219472 0.341958 0.000000                 
S30567           2                30567            0.450840 100.000000 37.882277 0.356781 0.000000                 
S28162           2                28162            1.681500 100.000000 73.159967 0.761236 0.000000                 
S10180           2                10180            1.314877 100.000000 64.694534 0.131597 0.000000                 
S26251           2                26251            1.337794 100.000000 65.255892 0.264859 0.000000                 
S7121            1                7121             1.635734 100.000000 72.157482 0.195100 0.000000                 
S21698           1                21698            0.212157 100.000000 25.986840 1.464649 0.000000                 
S28801           1                28801            1.063243 100.000000 58.175648 0.305552 0.000000                 
S25184           1                25184            0.947375 100.000000 54.914385 0.458099 0.000000                 
S8264            6                8264             1.406681 100.000000 66.914907 0.752912 0.000000                 
S29437           6                29437            3.896859 100.000000 111.373643 0.735390 0.000000                 
S2211            6                2211             0.890924 100.000000 53.253164 0.243312 0.000000                 
S7120            6                7120             1.654781 100.000000 72.576380 0.000000 0.000000                 
S25812           6                25812            1.402248 100.000000 66.809391 0.178811 0.000000                 
S15212           5                15212            0.165441 100.000000 22.948073 0.242067 0.000000                 
S19786           5                19786            1.334926 100.000000 65.185888 1.270220 0.000000                 
S15551           5                15551            2.278308 100.000000 85.159144 0.081677 0.000000                 
S19959           5                19959            2.446863 100.000000 88.253077 0.375203 0.000000                 
S3432            6                3432             3.146212 100.000000 100.073485 0.000000 0.000000                 
S5016            6                5016             2.106146 100.000000 81.878393 2.615313 0.000000                 
S4244            6                4244             3.046470 100.000000 98.474433 0.000000 0.000000                 
S2654            6                2654             2.205401 100.000000 83.785493 0.711531 0.000000                 
S9252            6                9252             0.605394 100.000000 43.897937 0.200890 0.000000                 
S16374           1                16374            0.907903 100.000000 53.758211 0.305216 0.000000                 
S17010           1                17010            0.656505 100.000000 45.713443 67.625358 0.000000                 
S7094            1                7094             0.648648 100.000000 45.439082 0.360738 0.000000                 
S30834           2                30834            1.539432 100.000000 70.001180 0.073114 0.000000                 
S13733           2                13733            0.114949 100.000000 19.128382 0.056653 0.000000                 
S9905            2                9905             0.568822 100.000000 42.551351 0.481491 0.000000                 
S7376            1                7376             0.857351 100.000000 52.240162 0.411462 0.000000                 
S24119           1                24119            0.501023 100.000000 39.935014 0.130217 0.000000                 
S27194           1                27194            0.281206 100.000000 29.918346 0.184467 0.000000                 
S28142           1                28142            2.185070 100.000000 83.398402 0.301862 0.000000                 
S9014            6                9014             1.112462 100.000000 59.506947 0.136104 0.000000                 
S26843           6                26843            0.351414 100.000000 33.445245 0.821585 0.000000                 
S29947           6                29947            2.604090 100.000000 91.044368 0.515986 0.000000                 
S13715           5                13715            2.204001 100.000000 83.758900 0.602270 0.000000                 
S18980           5                18980            0.588247 100.000000 43.271793 0.287289 0.000000                 
S19615           5                19615            3.190227 100.000000 100.771068 0.339510 0.000000                 
S10767           6                10767            4.560369 100.000000 120.482807 0.114545 0.000000                 
S29321           6                29321            0.978627 100.000000 55.812774 0.474995 0.000000                 
S2305            6                2305             1.215836 100.000000 62.210332 0.074377 0.000000                 
S26064           1                26064            0.141380 100.000000 21.213803 0.341343 0.000000                 
S24818           1                24818            0.804532 100.000000 50.605394 0.376430 0.000000                 
S24543           1                24543            0.060742 100.000000 13.904987 0.334367 0.000000                 
S18388           1                18388            1.301314 100.000000 64.360013 0.152219 0.000000                 
S26234           3                26234            0.702074 100.000000 47.273363 0.358191 0.000000                 
S2556            3                2556             1.967288 100.000000 79.133253 0.102458 0.000000                 
S1725            6                1725             0.795178 100.000000 50.310337 0.150765 0.000000                 
S7145            6                7145             3.391232 100.000000 103.897195 0.245418 0.000000                 
S12985           6                12985            2.394974 100.000000 87.312309 1.977149 0.000000                 
S9865            5                9865             2.468915 100.000000 88.649883 0.328973 0.000000                 
S19617           5                19617            0.686096 100.000000 46.732324 1.159010 0.000000                 
S27207           5                27207            0.493334 100.000000 39.627387 0.441535 0.000000                 
S12992           5                12992            2.955179 100.000000 96.987763 0.222774 0.000000                 
S10122           5                10122            9.417866 100.000000 173.141556 0.616566 0.000000                 
S21439           3                21439            1.634270 100.000000 72.125197 0.412062 0.000000                 
S27              3                27               3.810146 100.000000 110.127520 0.276839 0.000000                 
S23015           3                23015            1.119012 100.000000 59.681861 0.221029 0.000000                 
S1218            3                1218             1.539411 100.000000 70.000692 0.033570 0.000000                 
S357             3                357              1.577967 100.000000 70.871897 0.065543 0.000000                 
S15435           1                15435            0.324960 100.000000 32.161752 0.406234 0.000000                 
S24432           1                24432            0.766572 100.000000 49.397119 0.086491 0.000000                 
S25211           1                25211            0.609233 100.000000 44.036904 0.326576 0.000000                 
S23797           1                23797            1.130980 100.000000 60.000171 0.306609 0.000000                 
S31538           3                31538            2.371896 100.000000 86.890626 0.091677 0.000000                 
S4877            3                4877             1.265299 100.000000 63.463149 0.070946 0.000000                 
S20713           3                20713            1.623835 100.000000 71.894567 0.157479 0.000000                 
S1095            3                1095             1.261802 100.000000 63.375385 0.113173 0.000000                 
S21637           3                21637            2.484195 100.000000 88.923774 0.121601 0.000000                 
S21938           3                21938            0.513524 100.000000 40.430172 0.000000 0.000000                 
S43              4                43               1.650405 100.000000 72.480353 0.313838 0.000000                 
S9667            4                9667             2.103348 100.000000 81.823980 0.314562 0.000000                 
S21096           4                21096            2.819415 100.000000 94.733721 0.120041 0.000000                 
S20824           5                20824            0.979820 100.000000 55.846795 0.862306 0.000000                 
S8782            4                8782             5.706794 100.000000 134.778665 40.069313 0.000000                 
S9294            3                9294             0.757966 100.000000 49.119052 0.259564 0.000000                 
S2269            3                2269             2.887230 100.000000 95.866253 1.030120 0.000000                 
S3880            3                3880             0.631620 100.000000 44.838698 1.459832 0.000000                 
S8216            3                8216             1.734387 100.000000 74.301590 0.000000 0.000000                 
S1926            3                1926             2.956810 100.000000 97.014524 0.091180 0.000000                 
S397             3                397              3.869668 100.000000 110.984399 0.000000 0.000000                 
S12063           3                12063            1.344273 100.000000 65.413709 0.316755 0.000000                 
S23616           4                23616            1.816949 100.000000 76.049514 0.199199 0.000000                 
S13446           4                13446            0.153279 100.000000 22.088515 0.222907 0.000000                 
S5022            4                5022             2.145221 100.000000 82.634433 0.000000 0.000000                 
S8284            4                8284             1.840322 100.000000 76.537099 0.692101 0.000000                 
S14654           4                14654            0.295022 100.000000 30.644489 0.194214 0.000000                 
S2719            4                2719             0.609144 100.000000 44.033687 0.248500 0.000000                 
S747             4                747              3.236078 100.000000 101.492644 10.840425 0.000000                 
S20937           4                20937            0.859482 100.000000 52.305040 0.219215 0.000000                 
S5635            4                5635             0.811114 100.000000 50.811969 0.000000 0.000000                 
S6168            4                6168             1.310589 100.000000 64.588970 2.248478 0.000000                 
S7196            4                7196             0.908715 100.000000 53.782233 1.523160 0.000000                 
S17276           4                17276            0.235243 100.000000 27.364252 0.307155 0.000000                 
S7198            4                7198             1.184486 100.000000 61.403072 0.024650 0.000000                 
S7061            4                7061             1.226023 100.000000 62.470417 0.268099 0.000000                 
S796             4                796              3.743687 100.000000 109.162845 0.791938 0.000000                 
S983             4                983              3.380949 100.000000 103.739550 0.106637 0.000000                 
S321             4                321              3.147997 100.000000 100.101872 0.331389 0.000000                 
S13338           4                13338            0.668878 100.000000 46.142217 0.239669 0.000000                 
S16512           4                16512            0.528232 100.000000 41.005056 0.143713 0.000000                 
S9588            4                9588             1.019678 100.000000 56.971371 0.226599 0.000000                 
S6193            4                6193             0.287056 100.000000 30.227954 0.363793 0.000000                 
S11015           4                11015            1.015539 100.000000 56.855605 4.296930 0.000000                 
S1051            4                1051             2.707250 100.000000 92.830194 0.266105 0.000000                 
S21480           4                21480            3.236078 100.000000 101.492644 0.183123 0.000000                 
S21063           4                21063            0.775385 100.000000 49.680253 0.529094 0.000000                 
S10107           4                10107            3.353447 100.000000 103.316755 0.799394 0.000000                 
S8103            4                8103             0.407849 100.000000 36.030872 0.351985 0.000000                 
S4562            4                4562             0.780110 100.000000 49.831375 1.189980 0.000000                 
S7146            4                7146             1.243937 100.000000 62.925158 0.000000 0.000000                 
S5437            4                5437             1.813893 100.000000 75.985535 0.174599 0.000000                 
S745             4                745              0.652735 100.000000 45.582026 0.231383 0.000000                 
S5249            4                5249             2.003081 100.000000 79.849889 0.000000 0.000000                 
S3351            4                3351             1.890446 100.000000 77.572394 0.569720 0.000000                 
S676             4                676              2.119948 100.000000 82.146245 0.674924 0.000000                 
S22306           4                22306            0.604288 100.000000 43.857822 0.024849 0.000000                 
S5257            4                5257             3.078025 100.000000 98.983118 0.401594 0.000000                 
S6649            3                6649             3.053582 100.000000 98.589319 0.481291 0.000000                 
S4703            3                4703             3.691672 100.000000 108.401830 0.000000 0.000000                 
S29542           3                29542            1.979326 100.000000 79.375008 0.180585 0.000000                 
S26965           3                26965            3.710903 100.000000 108.683811 0.042382 0.000000                 
S27260           3                27260            0.691412 100.000000 46.913022 0.049059 0.000000                 
S2883            3                2883             1.056816 100.000000 57.999565 0.859076 0.000000                 
S2683            3                2683             1.475971 100.000000 68.543131 0.311163 0.000000                 
S3754            3                3754             1.614994 100.000000 71.698577 0.000000 0.000000                 
S3262            3                3262             6.959065 100.000000 148.833435 0.229621 0.000000                 
S21108           3                21108            1.589666 100.000000 71.134128 0.148230 0.000000                 
S22429           4                22429            0.928050 100.000000 54.351415 0.209212 0.000000                 
S1629            4                1629             2.149576 100.000000 82.718272 0.000000 0.000000                 
S18127           4                18127            0.339351 100.000000 32.866187 0.559648 0.000000                 
S8051            4                8051             0.329657 100.000000 32.393364 0.542196 0.000000                 
S20056           4                20056            3.003786 100.000000 97.782152 1.588173 0.000000                 
S22598           5                22598            0.339742 100.000000 32.885126 0.293216 0.000000                 
S9654            4                9654             1.194531 100.000000 61.662874 0.313236 0.000000                 
S8033            4                8033             0.301991 100.000000 31.004321 0.052445 0.000000                 
S8540            4                8540             4.288285 100.000000 116.833360 1.573329 0.000000                 
S4854            4                4854             0.763602 100.000000 49.301312 0.967471 0.000000                 
S18499           4                18499            0.432875 100.000000 37.119846 0.268360 0.000000                 
S2805            4                2805             0.625257 100.000000 44.612283 0.311955 0.000000                 
S1366            4                1366             1.623284 100.000000 71.882349 0.130810 0.000000                 
S1578            4                1578             1.386981 100.000000 66.444694 0.195513 0.000000                 
S5359            3                5359             0.595899 100.000000 43.552317 0.018610 0.000000                 
S22447           3                22447            1.328168 100.000000 65.020684 0.094592 0.000000                 
S876             3                876              1.424892 100.000000 67.346654 0.000000 0.000000                 
S14607           3                14607            1.633645 100.000000 72.111400 0.292353 0.000000                 
S1454            3                1454             2.309280 100.000000 85.736030 0.189777 0.000000                 
S23096           3                23096            3.247435 100.000000 101.670585 0.238788 0.000000                 
S23636           3                23636            1.376830 100.000000 66.201114 0.795348 0.000000                 
S3173            3                3173             1.459487 100.000000 68.159316 0.000000 0.000000                 
S8467            3                8467             0.304143 100.000000 31.114584 0.649564 0.000000                 
S23274           3                23274            0.360023 100.000000 33.852479 0.491726 0.000000                 
S5269            1                5269             0.479538 100.000000 39.069377 0.612691 0.000000                 
S24085           1                24085            0.240844 100.000000 27.688099 0.454161 0.000000                 
S3942            1                3942             0.298185 100.000000 30.808304 9.263714 0.000000                 
S4435            3                4435             0.250810 100.000000 28.255157 1.678572 0.000000                 
S4004            3                4004             0.657006 100.000000 45.730891 0.278722 0.000000                 
S2900            3                2900             2.295413 100.000000 85.478219 7.053235 0.000000                 