[JUNCTIONS]
;;Name           Elevation  MaxDepth   InitDepth  SurDepth   Aponded   
;;-------------- ---------- ---------- ---------- ---------- ----------
21776            28.710000  5.150000   0.000000   0.000000   200.000000
21756            28.730000  5.340000   0.000000   0.000000   200.000000
22059            29.850000  4.900000   0.000000   0.000000   200.000000
22058            30.130000  4.650000   0.000000   0.000000   200.000000
21775            29.720000  5.060000   0.000000   0.000000   200.000000
21507            29.680000  5.050000   0.000000   0.000000   200.000000
21509            29.540000  4.850000   0.000000   0.000000   200.000000
21552            29.520000  4.800000   0.000000   0.000000   200.000000
21554            27.840000  4.830000   0.000000   0.000000   200.000000
21556            29.600000  4.550000   0.000000   0.000000   200.000000
21686            28.100000  5.130000   0.000000   0.000000   200.000000
21688            28.550000  5.970000   0.000000   0.000000   200.000000
21695            29.540000  4.450000   0.000000   0.000000   200.000000
21697            29.050000  4.560000   0.000000   0.000000   200.000000
21757            28.720000  5.290000   0.000000   0.000000   200.000000
21761            29.620000  4.710000   0.000000   0.000000   200.000000
21506            29.690000  5.050000   0.000000   0.000000   200.000000
21778            29.110000  4.950000   0.000000   0.000000   200.000000
21812            27.820000  4.780000   0.000000   0.000000   200.000000
21828            29.180000  5.400000   0.000000   0.000000   200.000000
22012            29.140000  4.560000   0.000000   0.000000   200.000000
22014            28.910000  5.140000   0.000000   0.000000   200.000000
22054            29.220000  4.800000   0.000000   0.000000   200.000000
22057            28.050000  5.040000   0.000000   0.000000   200.000000
22011            29.150000  4.670000   0.000000   0.000000   200.000000
22056            28.060000  5.070000   0.000000   0.000000   200.000000
22159            29.400000  4.750000   0.000000   0.000000   200.000000
22160            28.000000  5.030000   0.000000   0.000000   200.000000
21555            29.610000  4.640000   0.000000   0.000000   200.000000
21694            29.580000  4.500000   0.000000   0.000000   200.000000
22862            28.870000  5.350000   0.000000   0.000000   200.000000
21758            27.680000  3.950000   0.000000   0.000000   200.000000
21827            29.200000  5.200000   0.000000   0.000000   200.000000
22979            28.820000  5.550000   0.000000   0.000000   200.000000
22980            27.940000  5.000000   0.000000   0.000000   200.000000
22981            29.520000  4.350000   0.000000   0.000000   200.000000
22983            29.250000  4.850000   0.000000   0.000000   200.000000
23108            29.670000  4.930000   0.000000   0.000000   200.000000
22055            28.750000  5.560000   0.000000   0.000000   200.000000
21553            27.900000  4.850000   0.000000   0.000000   200.000000
22863            27.750000  3.960000   0.000000   0.000000   200.000000
23199            29.230000  5.030000   0.000000   0.000000   200.000000
21777            29.140000  5.000000   0.000000   0.000000   200.000000
21508            29.650000  4.900000   0.000000   0.000000   200.000000
23868            29.690000  4.820000   0.000000   0.000000   200.000000
21760            29.630000  4.760000   0.000000   0.000000   200.000000
21687            28.570000  5.960000   0.000000   0.000000   200.000000
22075            28.080000  5.100000   0.000000   0.000000   200.000000
23869            29.660000  4.790000   0.000000   0.000000   200.000000
23897            29.510000  4.290000   0.000000   0.000000   200.000000
23198            28.810000  5.530000   0.000000   0.000000   200.000000
23867            29.700000  4.920000   0.000000   0.000000   200.000000
23933            29.360000  4.350000   0.000000   0.000000   200.000000
23870            29.080000  4.900000   0.000000   0.000000   200.000000
22053            29.330000  4.750000   0.000000   0.000000   200.000000
22013            28.950000  4.860000   0.000000   0.000000   200.000000
23932            29.730000  5.000000   0.000000   0.000000   200.000000
22982            29.310000  4.400000   0.000000   0.000000   200.000000
21685            28.130000  5.160000   0.000000   0.000000   200.000000
23200            29.170000  5.080000   0.000000   0.000000   200.000000
25360            28.500000  5.200000   0.000000   0.000000   200.000000
22074            29.180000  4.730000   0.000000   0.000000   200.000000
21696            29.060000  4.500000   0.000000   0.000000   200.000000
T2               28.360000  3.183680   0.000000   0.000000   200.000000
T3               29.270000  5.764561   0.000000   0.000000   200.000000
T4               29.620000  6.699992   0.000000   0.000000   200.000000
T5               31.700000  4.025922   0.000000   0.000000   200.000000
T7               32.950000  4.231160   0.000000   0.000000   200.000000
T8               34.940000  3.042845   0.000000   0.000000   200.000000
T9               37.050000  2.567805   0.000000   0.000000   200.000000
T10              36.100000  3.236594   0.000000   0.000000   200.000000
T11              36.100000  3.406729   0.000000   0.000000   200.000000
T12              32.610000  3.169587   0.000000   0.000000   200.000000
T13              29.620000  6.550509   0.000000   0.000000   200.000000
T14              33.460000  2.297729   0.000000   0.000000   200.000000
T15              32.490000  2.881891   0.000000   0.000000   200.000000
T16              32.360000  2.877949   0.000000   0.000000   200.000000
T17              27.280000  2.963572   0.000000   0.000000   200.000000
T18              27.280000  3.211413   0.000000   0.000000   200.000000
T19              36.350000  3.641798   0.000000   0.000000   200.000000
T20              34.390000  5.129135   0.000000   0.000000   200.000000
T21              34.110000  4.568070   0.000000   0.000000   200.000000
T22              33.970000  3.199922   0.000000   0.000000   200.000000
T23              30.760000  3.587549   0.000000   0.000000   200.000000
T27              35.910000  3.890892   0.000000   0.000000   200.000000
T28              34.580000  4.738611   0.000000   0.000000   200.000000
T29              31.920000  4.242102   0.000000   0.000000   200.000000
T30              30.390000  3.942848   0.000000   0.000000   200.000000
T34              33.220000  1.638784   0.000000   0.000000   200.000000
T35              32.420000  1.817778   0.000000   0.000000   200.000000
T36              32.400000  1.962236   0.000000   0.000000   200.000000
T37              32.380000  1.906709   0.000000   0.000000   200.000000
T38              32.190000  2.058802   0.000000   0.000000   200.000000
T39              34.120000  3.657435   0.000000   0.000000   200.000000
T40              33.090000  2.759228   0.000000   0.000000   200.000000
T41              31.020000  3.397030   0.000000   0.000000   200.000000
T45              29.990000  2.468626   0.000000   0.000000   200.000000
T46              30.160000  3.109543   0.000000   0.000000   200.000000
T47              29.090000  4.782925   0.000000   0.000000   200.000000
T48              30.450000  3.200000   0.000000   0.000000   200.000000
T49              30.240000  1.896215   0.000000   0.000000   200.000000
T51              32.210000  2.745544   0.000000   0.000000   200.000000
T52              32.210000  2.894134   0.000000   0.000000   200.000000
T53              32.350000  3.013716   0.000000   0.000000   200.000000
T54              32.290000  2.112573   0.000000   0.000000   200.000000
T55              32.850000  1.570128   0.000000   0.000000   200.000000
T56              31.310000  3.167863   0.000000   0.000000   200.000000
T57              31.590000  2.596222   0.000000   0.000000   200.000000
T58              31.450000  2.704640   0.000000   0.000000   200.000000
T59              31.140000  2.821555   0.000000   0.000000   200.000000
T60              30.550000  3.850970   0.000000   0.000000   200.000000
T61              30.310000  3.722295   0.000000   0.000000   200.000000
T62              32.360000  2.322911   0.000000   0.000000   200.000000
tz1              35.801981  3.804510   0.000000   0.000000   200.000000
tz2              35.683413  3.840750   0.000000   0.000000   200.000000
tz3              35.555162  4.130816   0.000000   0.000000   200.000000
tz4              35.419991  4.468845   0.000000   0.000000   200.000000
tz5              35.283798  4.566216   0.000000   0.000000   200.000000
tz6              35.143105  4.528336   0.000000   0.000000   200.000000
tz7              35.019695  4.531746   0.000000   0.000000   200.000000
tz8              34.879002  4.780651   0.000000   0.000000   200.000000
tz9              34.740729  5.100446   0.000000   0.000000   200.000000
tz10             33.848801  4.851936   0.000000   0.000000   200.000000
tz11             32.843439  4.516119   0.000000   0.000000   200.000000
tz12             31.517180  3.971788   0.000000   0.000000   200.000000
tz13             31.177084  3.704889   0.000000   0.000000   200.000000
tz14             30.768947  3.673936   0.000000   0.000000   200.000000
tz15             30.287626  4.121901   0.000000   0.000000   200.000000
tz16             30.173808  4.193284   0.000000   0.000000   200.000000
tz17             30.063137  3.997063   0.000000   0.000000   200.000000
tz18             29.949319  4.124629   0.000000   0.000000   200.000000
tz23             36.080999  3.696680   0.000000   0.000000   200.000000
tz24             35.763556  3.992532   0.000000   0.000000   200.000000
tz25             35.440129  4.471508   0.000000   0.000000   200.000000
tz26             35.104733  4.584923   0.000000   0.000000   200.000000
tz27             34.731087  4.984916   0.000000   0.000000   200.000000
tz28             32.963070  2.962208   0.000000   0.000000   200.000000
tz29             31.824624  2.851745   0.000000   0.000000   200.000000
tz30             30.567655  3.796061   0.000000   0.000000   200.000000
tz31             30.369519  3.707649   0.000000   0.000000   200.000000
tz32             30.178321  4.477937   0.000000   0.000000   200.000000
tz36             32.279299  3.002840   0.000000   0.000000   200.000000
tz37             32.977017  1.337687   0.000000   0.000000   200.000000
tz38             32.674403  1.723088   0.000000   0.000000   200.000000
tz39             36.439336  2.655597   0.000000   0.000000   200.000000
tz40             35.782385  2.768454   0.000000   0.000000   200.000000
tz41             33.629512  3.297333   0.000000   0.000000   200.000000
tz42             32.244281  2.882031   0.000000   0.000000   200.000000
tz43             31.310856  2.791622   0.000000   0.000000   200.000000
tz44             30.640000  3.381835   0.000000   0.000000   200.000000
tz45             30.140000  4.046737   0.000000   0.000000   200.000000
tz46             29.640000  4.209510   0.000000   0.000000   200.000000
tz47             32.586223  1.831391   0.000000   0.000000   200.000000
tz48             31.252648  3.301253   0.000000   0.000000   200.000000
tz49             31.185517  3.494121   0.000000   0.000000   200.000000
tz50             31.120451  3.408724   0.000000   0.000000   200.000000
tz51             31.066746  3.371422   0.000000   0.000000   200.000000
tz52             30.530612  3.853017   0.000000   0.000000   200.000000
tz53             30.511248  3.716802   0.000000   0.000000   200.000000
tz54             30.490135  3.647946   0.000000   0.000000   200.000000
tz55             30.468146  3.530504   0.000000   0.000000   200.000000
tz56             30.445836  3.367747   0.000000   0.000000   200.000000
tz57             30.425520  3.195952   0.000000   0.000000   200.000000
tz58             30.402889  3.042023   0.000000   0.000000   200.000000
tz59             30.382261  3.210745   0.000000   0.000000   200.000000
tz60             32.450000  1.200000   0.000000   0.000000   200.000000
tz61             32.450000  1.200000   0.000000   0.000000   200.000000
tz62             30.008181  1.976636   0.000000   0.000000   200.000000
tz63             29.858217  2.021720   0.000000   0.000000   200.000000
tz64             29.669089  2.174022   0.000000   0.000000   200.000000
tz65             30.516054  3.691580   0.000000   0.000000   200.000000
tz66             30.480938  3.646717   0.000000   0.000000   200.000000
tz67             30.447347  3.638163   0.000000   0.000000   200.000000
tz68             30.416301  3.577679   0.000000   0.000000   200.000000
tz69             30.386782  3.562837   0.000000   0.000000   200.000000
tz70             30.348102  3.563988   0.000000   0.000000   200.000000
tz71             29.310000  4.738359   0.000000   0.000000   200.000000
tz72             28.310000  5.617284   0.000000   0.000000   200.000000
tz73             27.310000  6.451787   0.000000   0.000000   200.000000
tz74             26.310000  7.268030   0.000000   0.000000   200.000000
tz75             35.929701  3.318063   0.000000   0.000000   200.000000
tz76             35.750843  3.309051   0.000000   0.000000   200.000000
tz77             35.575118  3.203606   0.000000   0.000000   200.000000
tz78             35.424498  3.187780   0.000000   0.000000   200.000000
tz79             35.255051  3.202484   0.000000   0.000000   200.000000
tz80             35.101291  3.207447   0.000000   0.000000   200.000000
tz81             34.379286  3.338431   0.000000   0.000000   200.000000
tz82             33.733207  3.781384   0.000000   0.000000   200.000000
tz83             34.730637  2.265578   0.000000   0.000000   200.000000
tz84             34.313377  2.538624   0.000000   0.000000   200.000000
tz85             33.911019  2.674442   0.000000   0.000000   200.000000
tz86             33.471406  2.928398   0.000000   0.000000   200.000000
tz87             33.083950  3.175530   0.000000   0.000000   200.000000
tz88             32.726298  3.441160   0.000000   0.000000   200.000000
tz89             32.286684  3.694269   0.000000   0.000000   200.000000
tz90             30.693750  4.934329   0.000000   0.000000   200.000000
tz91             29.516809  6.899180   0.000000   0.000000   200.000000
tz92             29.394142  5.439663   0.000000   0.000000   200.000000
tz93             29.179548  6.557238   0.000000   0.000000   200.000000
tz94             29.077654  6.828916   0.000000   0.000000   200.000000
tz95             28.988713  6.500381   0.000000   0.000000   200.000000
tz96             28.899820  5.306857   0.000000   0.000000   200.000000
tz97             28.808960  4.254326   0.000000   0.000000   200.000000
tz98             28.716378  3.715335   0.000000   0.000000   200.000000
tz99             28.625551  3.485678   0.000000   0.000000   200.000000
tz100            28.531116  3.416924   0.000000   0.000000   200.000000
tz101            28.449569  3.379220   0.000000   0.000000   200.000000
tz102            28.353901  3.294145   0.000000   0.000000   200.000000
tz103            28.347325  3.203819   0.000000   0.000000   200.000000
tz104            28.339891  3.075381   0.000000   0.000000   200.000000
tz105            32.596530  3.300412   0.000000   0.000000   200.000000
tz106            32.585004  3.296515   0.000000   0.000000   200.000000
tz107            32.573131  3.254311   0.000000   0.000000   200.000000
tz108            32.561778  3.170407   0.000000   0.000000   200.000000
tz109            32.550955  3.128190   0.000000   0.000000   200.000000
tz110            32.541173  3.096809   0.000000   0.000000   200.000000
tz111            32.530001  3.117250   0.000000   0.000000   200.000000
tz112            32.519876  3.090155   0.000000   0.000000   200.000000
tz113            32.510098  3.237922   0.000000   0.000000   200.000000
tz114            29.770886  7.080699   0.000000   0.000000   200.000000
tz115            29.661537  7.205303   0.000000   0.000000   200.000000
tz116            29.555773  6.373338   0.000000   0.000000   200.000000
tz117            29.455387  5.725650   0.000000   0.000000   200.000000
tz118            29.349624  5.117440   0.000000   0.000000   200.000000
tz119            29.224141  4.929538   0.000000   0.000000   200.000000
tz120            29.307046  4.298621   0.000000   0.000000   200.000000
tz121            29.543323  3.797650   0.000000   0.000000   200.000000
tz122            29.755947  3.512268   0.000000   0.000000   200.000000
tz123            29.960547  3.417158   0.000000   0.000000   200.000000
tz124            30.125764  2.756358   0.000000   0.000000   200.000000
tz125            30.087186  2.623110   0.000000   0.000000   200.000000
tz126            30.043568  2.467815   0.000000   0.000000   200.000000
tz127            29.990000  2.469122   0.000000   0.000000   200.000000
tz128            29.990000  2.365633   0.000000   0.000000   200.000000
tz129            29.990000  2.187959   0.000000   0.000000   200.000000
tz130            29.990000  2.000000   0.000000   0.000000   200.000000
tz131            32.987250  2.798017   0.000000   0.000000   200.000000
tz132            32.360000  2.929322   0.000000   0.000000   200.000000
tz147            32.312837  2.939349   0.000000   0.000000   200.000000
tz148            32.240783  2.862843   0.000000   0.000000   200.000000
tz149            32.210000  2.847964   0.000000   0.000000   200.000000
tz150            33.104474  1.462512   0.000000   0.000000   200.000000
tz151            32.840316  1.313981   0.000000   0.000000   200.000000
tz152            32.546169  1.940617   0.000000   0.000000   200.000000
tz154            32.389945  1.953034   0.000000   0.000000   200.000000
tz155            36.766138  2.647489   0.000000   0.000000   200.000000
tz156            36.101353  2.749714   0.000000   0.000000   200.000000
tz157            35.405790  2.972216   0.000000   0.000000   200.000000
tz158            33.859117  3.443305   0.000000   0.000000   200.000000
tz159            33.349146  3.041834   0.000000   0.000000   200.000000
tz160            32.639961  2.786190   0.000000   0.000000   200.000000
tz161            31.827526  2.858898   0.000000   0.000000   200.000000
TZ133            32.137855  2.503643   0.000000   0.000000   200.000000
TZ134            31.937657  2.327365   0.000000   0.000000   200.000000
TZ135            31.665423  2.726789   0.000000   0.000000   200.000000
TZ136            31.401135  2.754200   0.000000   0.000000   200.000000
TZ137            31.104894  2.935637   0.000000   0.000000   200.000000
TZ138            30.836633  2.926421   0.000000   0.000000   200.000000
TZ139            30.568387  3.000720   0.000000   0.000000   200.000000
TZ140            30.248093  3.065925   0.000000   0.000000   200.000000
TZ141            29.899759  2.734003   0.000000   0.000000   200.000000
TZ142            29.559447  2.418695   0.000000   0.000000   200.000000
TZ143            29.255153  2.155537   0.000000   0.000000   200.000000
TZ144            28.966889  2.316932   0.000000   0.000000   200.000000
TZ145            28.658607  2.176868   0.000000   0.000000   200.000000
TZ146            28.406360  2.223723   0.000000   0.000000   200.000000
TZ1461           28.138099  2.181977   0.000000   0.000000   200.000000
TZ1462           27.889902  2.309446   0.000000   0.000000   200.000000
TZ1463           27.609600  2.537482   0.000000   0.000000   200.000000
