[SUBCATCHMENTS]
S22981 S22981 22981 1.450578 70.000000 67.950953 0.200000 0.000000
S21758 S21758 21758 9.649563 30.000000 175.258421 6.229903 0.000000
S21553 S21553 21553 2.360723 60.000000 86.685724 0.200000 0.000000
S21828 S21828 21828 1.268710 70.000000 63.548647 0.876011 0.000000
S22059 S22059 22059 1.197448 70.000000 61.738107 0.200000 0.000000
S25360 S25360 25360 0.242220 80.000000 27.767070 1.755419 0.000000
S22075 S22075 22075 0.864740 80.000000 52.464763 0.200000 0.000000
S22863 S22863 22863 2.475508 70.000000 88.768171 0.200000 0.000000
S22980 S22980 22980 2.072192 60.000000 81.215706 0.380023 0.000000
S22160 S22160 22160 3.197697 60.000000 100.888970 0.200000 0.000000
S22056 S22056 22056 4.565345 70.000000 120.548519 0.200000 0.000000
S22057 S22057 22057 1.485283 60.000000 68.759013 0.200000 0.000000
S21812 S21812 21812 3.891329 40.000000 111.294581 1.779974 0.000000
S21688 S21688 21688 0.421856 80.000000 36.644355 1.957946 0.000000
S21554 S21554 21554 2.738316 60.000000 93.361292 0.200000 0.000000
S23200 S23200 23200 1.216918 60.000000 62.238018 0.338833 0.000000
S21685 S21685 21685 0.864496 80.000000 52.457361 0.200000 0.000000
S22982 S22982 22982 2.015525 60.000000 80.097544 0.454682 0.000000
S23870 S23870 23870 0.804531 70.000000 50.605367 1.352657 0.000000
S23198 S23198 23198 0.519295 80.000000 40.656705 0.200000 0.000000
S21687 S21687 21687 0.687569 80.000000 46.782484 0.200000 0.000000
S21777 S21777 21777 0.985097 80.000000 55.996980 0.317023 0.000000
S23199 S23199 23199 1.662732 50.000000 72.750541 0.283169 0.000000
S22055 S22055 22055 0.812498 80.000000 50.855307 0.764614 0.000000
S22983 S22983 22983 2.358143 60.000000 86.638339 0.477744 0.000000
S22979 S22979 22979 1.745874 80.000000 74.547240 0.200000 0.000000
S21827 S21827 21827 1.600339 60.000000 71.372520 0.608079 0.000000
S22862 S22862 22862 1.689729 70.000000 73.338763 0.335038 0.000000
S22014 S22014 22014 2.619659 70.000000 91.316120 0.421636 0.000000
S21778 S21778 21778 0.696537 80.000000 47.086586 0.233865 0.000000
S21757 S21757 21757 0.656473 80.000000 45.712346 0.481209 0.000000
S21686 S21686 21686 0.354591 70.000000 33.596109 0.200000 0.000000
S21756 S21756 21756 0.522363 80.000000 40.776610 0.240305 0.000000
S21776 S21776 21776 0.623471 80.000000 44.548497 1.660600 0.000000
S21696 S21696 21696 1.551472 80.000000 70.274379 0.248899 0.000000
S22074 S22074 22074 9.488384 80.000000 173.788560 0.224935 0.000000
S22013 S22013 22013 4.643277 60.000000 121.573064 0.238815 0.000000
S22053 S22053 22053 3.678798 80.000000 108.212657 0.200000 0.000000
S23933 S23933 23933 2.727050 60.000000 93.169042 0.200000 0.000000
S23897 S23897 23897 2.990791 70.000000 97.570395 0.200000 0.000000
S21694 S21694 21694 1.364421 70.000000 65.902101 0.231608 0.000000
S21555 S21555 21555 1.394673 70.000000 66.628686 0.241970 0.000000
S22159 S22159 22159 2.618563 80.000000 91.297010 0.233153 0.000000
S22011 S22011 22011 4.992193 80.000000 126.058093 0.288728 0.000000
S22054 S22054 22054 3.816124 80.000000 110.213882 0.296414 0.000000
S22012 S22012 22012 8.467357 80.000000 164.171967 0.322935 0.000000
S21761 S21761 21761 1.113894 60.000000 59.545229 0.203354 0.000000
S21697 S21697 21697 2.291205 60.000000 85.399836 0.262375 0.000000
S21695 S21695 21695 1.361063 70.000000 65.820964 0.306307 0.000000
S21556 S21556 21556 1.427215 70.000000 67.401538 0.200000 0.000000
S21552 S21552 21552 3.834435 70.000000 110.477982 0.338164 0.000000
S23932 S23932 23932 1.384376 70.000000 66.382263 0.220211 0.000000
S23867 S23867 23867 1.476741 70.000000 68.561014 0.278505 0.000000
S23869 S23869 23869 0.970135 70.000000 55.570110 0.251510 0.000000
S21760 S21760 21760 0.789693 70.000000 50.136508 0.233626 0.000000
S23868 S23868 23868 1.183785 60.000000 61.384887 0.200000 0.000000
S21508 S21508 21508 3.558224 70.000000 106.424528 0.227372 0.000000
S23108 S23108 23108 1.794992 80.000000 75.588595 0.227477 0.000000
S21506 S21506 21506 2.496693 70.000000 89.147187 0.200000 0.000000
S21509 S21509 21509 3.575817 80.000000 106.687290 0.265567 0.000000
S21507 S21507 21507 2.281215 70.000000 85.213447 0.280930 0.000000
S21775 S21775 21775 4.382533 60.000000 118.110264 0.200000 0.000000
S22058 S22058 22058 1.594427 70.000000 71.240566 0.200000 0.000000
ST14 ST14 T14 4.112347 100.000000 114.411570 0.200000 0.000000
Stz105 Stz105 tz105 3.580346 100.000000 106.754841 0.200000 0.000000
Stz106 Stz106 tz106 4.514228 100.000000 119.871741 0.200000 0.000000
ST27 ST27 T27 3.133795 100.000000 99.875817 0.337529 0.000000
ST19 ST19 T19 2.938373 100.000000 96.711592 0.213609 0.000000
ST9 ST9 T9 8.438994 100.000000 163.896774 0.309334 0.000000
Stz1 Stz1 tz1 3.772255 100.000000 109.578554 0.200000 0.000000
Stz107 Stz107 tz107 4.949778 100.000000 125.521437 0.200000 0.000000
Stz86 Stz86 tz86 7.021617 100.000000 149.500844 0.200000 0.000000
Stz87 Stz87 tz87 6.067584 100.000000 138.973813 0.200000 0.000000
Stz88 Stz88 tz88 6.214957 100.000000 140.651419 0.200000 0.000000
Stz89 Stz89 tz89 7.574533 100.000000 155.275516 0.200000 0.000000
ST5 ST5 T5 8.840504 100.000000 167.750406 0.200000 0.000000
Stz108 Stz108 tz108 5.453426 100.000000 131.752774 0.200000 0.000000
Stz85 Stz85 tz85 7.052920 100.000000 149.833718 0.200000 0.000000
Stz2 Stz2 tz2 5.083682 100.000000 127.207946 0.236633 0.000000
Stz23 Stz23 tz23 3.518897 100.000000 105.834768 0.200000 0.000000
Stz109 Stz109 tz109 4.655948 100.000000 121.738831 0.200000 0.000000
ST53 ST53 T53 20.007719 100.000000 252.361936 0.200000 0.000000
Stz3 Stz3 tz3 4.944296 100.000000 125.451921 0.281462 0.000000
Stz155 Stz155 tz155 5.316271 100.000000 130.085414 0.419388 0.000000
Stz84 Stz84 tz84 6.577832 100.000000 144.699302 0.200000 0.000000
Stz24 Stz24 tz24 3.505805 100.000000 105.637708 0.200000 0.000000
Stz131 Stz131 tz131 1.046730 100.000000 57.722148 0.466550 0.000000
Stz4 Stz4 tz4 4.570318 100.000000 120.614156 0.200000 0.000000
ST12 ST12 T12 0.424290 100.000000 36.749924 0.200000 0.000000
Stz39 Stz39 tz39 5.211324 100.000000 128.795030 0.310300 0.000000
Stz83 Stz83 tz83 5.599824 100.000000 133.509530 0.200000 0.000000
Stz110 Stz110 tz110 3.713446 100.000000 108.721049 0.200000 0.000000
Stz77 Stz77 tz77 4.697291 100.000000 122.278128 0.200000 0.000000
ST15 ST15 T15 1.671537 100.000000 72.942902 0.200000 0.000000
Stz5 Stz5 tz5 4.134890 100.000000 114.724726 0.238044 0.000000
Stz156 Stz156 tz156 4.083139 100.000000 114.004536 0.404790 0.000000
Stz76 Stz76 tz76 4.891439 100.000000 124.779545 0.200000 0.000000
ST7 ST7 T7 4.927919 100.000000 125.243971 0.200000 0.000000
Stz78 Stz78 tz78 3.494522 100.000000 105.467578 0.200000 0.000000
Stz25 Stz25 tz25 2.311960 100.000000 85.785760 0.200000 0.000000
ST16 ST16 T16 2.039275 100.000000 80.568068 0.200000 0.000000
Stz82 Stz82 tz82 3.592917 100.000000 106.942080 0.200000 0.000000
Stz75 Stz75 tz75 3.458890 100.000000 104.928496 0.200000 0.000000
Stz40 Stz40 tz40 2.946556 100.000000 96.846165 0.200000 0.000000
Stz6 Stz6 tz6 3.400051 100.000000 104.032206 0.200000 0.000000
Stz111 Stz111 tz111 2.697313 100.000000 92.659670 0.200000 0.000000
Stz79 Stz79 tz79 2.304073 100.000000 85.639308 0.200000 0.000000
Stz26 Stz26 tz26 0.973844 100.000000 55.676216 0.200000 0.000000
ST10 ST10 T10 1.985569 100.000000 79.500076 0.200000 0.000000
Stz7 Stz7 tz7 3.132433 100.000000 99.854115 0.200000 0.000000
Stz157 Stz157 tz157 1.589325 100.000000 71.126508 0.464587 0.000000
Stz81 Stz81 tz81 1.489171 100.000000 68.848952 0.200000 0.000000
Stz80 Stz80 tz80 1.058058 100.000000 58.033649 0.200000 0.000000
Stz132 Stz132 tz132 2.232592 100.000000 84.300424 0.735742 0.000000
Stz112 Stz112 tz112 1.690925 100.000000 73.364717 0.220242 0.000000
ST11 ST11 T11 0.779900 100.000000 49.824667 0.237255 0.000000
Stz8 Stz8 tz8 2.846707 100.000000 95.191125 0.246211 0.000000
ST8 ST8 T8 0.591162 100.000000 43.378881 0.200000 0.000000
Stz90 Stz90 tz90 1.530169 100.000000 69.790253 0.558827 0.000000
ST62 ST62 T62 1.393464 100.000000 66.599813 0.200000 0.000000
Stz113 Stz113 tz113 0.862841 100.000000 52.407142 0.652926 0.000000
Stz27 Stz27 tz27 0.862098 100.000000 52.384557 0.200000 0.000000
ST39 ST39 T39 0.862729 100.000000 52.403743 0.623787 0.000000
Stz9 Stz9 tz9 2.897091 100.000000 96.029821 0.609760 0.000000
STZ133 STZ133 TZ133 1.592283 100.000000 71.192651 0.741302 0.000000
ST13 ST13 T13 0.338304 100.000000 32.815485 0.910183 0.000000
Stz158 Stz158 tz158 1.822389 100.000000 76.163284 0.560394 0.000000
STZ134 STZ134 TZ134 1.841864 100.000000 76.569157 0.200000 0.000000
ST28 ST28 T28 2.945806 100.000000 96.833832 1.008769 0.000000
ST3 ST3 T3 4.947009 100.000000 125.486326 0.200000 0.000000
ST20 ST20 T20 1.904457 100.000000 77.859325 1.041437 0.000000
Stz92 Stz92 tz92 2.429245 100.000000 87.934782 0.200000 0.000000
ST4 ST4 T4 0.298704 100.000000 30.835115 0.859334 0.000000
Stz91 Stz91 tz91 1.264844 100.000000 63.451748 0.200000 0.000000
Stz114 Stz114 tz114 0.864559 100.000000 52.459280 0.200000 0.000000
Stz115 Stz115 tz115 1.789748 100.000000 75.478106 1.420553 0.000000
STZ135 STZ135 TZ135 3.203646 100.000000 100.982776 0.353318 0.000000
Stz41 Stz41 tz41 2.910810 100.000000 96.256924 0.654796 0.000000
Stz116 Stz116 tz116 2.209496 100.000000 83.863246 1.193960 0.000000
Stz117 Stz117 tz117 2.547081 100.000000 90.042265 1.081592 0.000000
ST21 ST21 T21 2.049541 100.000000 80.770614 1.674976 0.000000
Stz10 Stz10 tz10 2.180145 100.000000 83.304370 1.592545 0.000000
Stz118 Stz118 tz118 3.254536 100.000000 101.781678 0.400140 0.000000
STZ136 STZ136 TZ136 3.882220 100.000000 111.164248 0.200000 0.000000
Stz159 Stz159 tz159 4.194381 100.000000 115.547091 0.716196 0.000000
Stz119 Stz119 tz119 3.952901 100.000000 112.171636 0.335337 0.000000
ST47 ST47 T47 5.249080 100.000000 129.260747 0.200000 0.000000
ST22 ST22 T22 3.344725 100.000000 103.182316 1.020895 0.000000
Stz11 Stz11 tz11 2.440172 100.000000 88.132337 1.548029 0.000000
Stz147 Stz147 tz147 2.750125 100.000000 93.562378 0.200000 0.000000
STZ137 STZ137 TZ137 3.918136 100.000000 111.677278 0.407745 0.000000
ST40 ST40 T40 5.391945 100.000000 131.007991 0.468069 0.000000
Stz93 Stz93 tz93 3.028813 100.000000 98.188644 0.200000 0.000000
Stz48 Stz48 tz48 3.793199 100.000000 109.882337 0.200000 0.000000
ST56 ST56 T56 2.445684 100.000000 88.231817 0.200000 0.000000
Stz36 Stz36 tz36 2.810794 100.000000 94.588770 0.227634 0.000000
STZ138 STZ138 TZ138 3.739656 100.000000 109.104056 0.285015 0.000000
ST29 ST29 T29 2.744865 100.000000 93.472869 0.797080 0.000000
Stz28 Stz28 tz28 3.198791 100.000000 100.906230 0.906053 0.000000
Stz55 Stz55 tz55 4.633960 100.000000 121.451028 0.236815 0.000000
Stz56 Stz56 tz56 4.500517 100.000000 119.689561 0.269955 0.000000
Stz160 Stz160 tz160 4.613822 100.000000 121.186843 0.377298 0.000000
Stz54 Stz54 tz54 3.581775 100.000000 106.776140 0.200000 0.000000
Stz94 Stz94 tz94 3.452995 100.000000 104.839034 0.200000 0.000000
Stz49 Stz49 tz49 4.211336 100.000000 115.780397 0.200000 0.000000
Stz120 Stz120 tz120 3.920971 100.000000 111.717672 0.200000 0.000000
Stz151 Stz151 tz151 5.803559 100.000000 135.916522 0.229934 0.000000
STZ139 STZ139 TZ139 4.115045 100.000000 114.449092 0.313951 0.000000
Stz148 Stz148 tz148 2.433973 100.000000 88.020320 0.200000 0.000000
Stz12 Stz12 tz12 1.899692 100.000000 77.761873 0.851323 0.000000
ST55 ST55 T55 1.170878 100.000000 61.049329 0.200000 0.000000
Stz38 Stz38 tz38 4.230542 100.000000 116.044105 0.200000 0.000000
Stz53 Stz53 tz53 2.323798 100.000000 86.005107 0.200000 0.000000
Stz57 Stz57 tz57 3.440855 100.000000 104.654576 0.222726 0.000000
Stz42 Stz42 tz42 2.925410 100.000000 96.498023 0.525536 0.000000
Stz95 Stz95 tz95 3.452564 100.000000 104.832504 0.200000 0.000000
Stz47 Stz47 tz47 1.487821 100.000000 68.817730 0.200000 0.000000
Stz37 Stz37 tz37 5.211255 100.000000 128.794179 0.200000 0.000000
Stz50 Stz50 tz50 2.397007 100.000000 87.349359 0.200000 0.000000
ST52 ST52 T52 2.048497 100.000000 80.750038 0.200000 0.000000
STZ140 STZ140 TZ140 4.693163 100.000000 122.224386 0.769830 0.000000
Stz121 Stz121 tz121 3.068917 100.000000 98.836571 0.200000 0.000000
Stz29 Stz29 tz29 1.401792 100.000000 66.798525 0.255092 0.000000
Stz13 Stz13 tz13 1.382244 100.000000 66.331145 0.513168 0.000000
Stz52 Stz52 tz52 1.286569 100.000000 63.994345 0.229379 0.000000
Stz96 Stz96 tz96 3.719265 100.000000 108.806191 0.200000 0.000000
Stz152 Stz152 tz152 2.251530 100.000000 84.657202 0.309592 0.000000
Stz161 Stz161 tz161 1.437190 100.000000 67.636672 0.329134 0.000000
Stz58 Stz58 tz58 2.314098 100.000000 85.825426 0.204961 0.000000
Stz150 Stz150 tz150 4.828167 100.000000 123.969887 0.310492 0.000000
Stz149 Stz149 tz149 1.660474 100.000000 72.701118 0.200000 0.000000
Stz51 Stz51 tz51 0.990878 100.000000 56.161029 0.200000 0.000000
ST54 ST54 T54 0.738524 100.000000 48.485005 0.200000 0.000000
STZ141 STZ141 TZ141 4.670386 100.000000 121.927438 0.759441 0.000000
Stz14 Stz14 tz14 0.820779 100.000000 51.113794 0.200000 0.000000
Stz122 Stz122 tz122 1.871358 100.000000 77.179780 0.200000 0.000000
ST60 ST60 T60 0.514268 100.000000 40.459428 0.200000 0.000000
Stz97 Stz97 tz97 3.781939 100.000000 109.719122 0.200000 0.000000
ST35 ST35 T35 0.898530 100.000000 53.480002 0.200000 0.000000
ST48 ST48 T48 5.464663 100.000000 131.888451 1.128511 0.000000
ST41 ST41 T41 0.353042 100.000000 33.522656 0.200000 0.000000
ST34 ST34 T34 2.528579 100.000000 89.714634 0.396215 0.000000
ST51 ST51 T51 73.719955 100.000000 484.415012 0.439403 0.000000
Stz59 Stz59 tz59 1.147995 100.000000 60.449826 0.414814 0.000000
ST23 ST23 T23 0.354078 100.000000 33.571787 0.200000 0.000000
Stz61 Stz61 tz61 3.334029 100.000000 103.017200 0.200000 0.000000
STZ142 STZ142 TZ142 2.486453 100.000000 88.964173 0.735113 0.000000
ST30 ST30 T30 0.331444 100.000000 32.481054 0.200000 0.000000
Stz123 Stz123 tz123 0.900170 100.000000 53.528781 0.200000 0.000000
ST37 ST37 T37 0.170847 100.000000 23.320003 0.200000 0.000000
Stz154 Stz154 tz154 1.380761 100.000000 66.295550 0.200000 0.000000
ST36 ST36 T36 0.679684 100.000000 46.513437 0.200000 0.000000
Stz98 Stz98 tz98 3.481942 100.000000 105.277564 0.200000 0.000000
ST38 ST38 T38 4.602966 100.000000 121.044191 0.287607 0.000000
ST57 ST57 T57 0.734967 100.000000 48.368086 0.200000 0.000000
Stz65 Stz65 tz65 1.048479 100.000000 57.770342 0.200000 0.000000
Stz60 Stz60 tz60 1.343866 100.000000 65.403819 0.200000 0.000000
STZ143 STZ143 TZ143 2.141548 100.000000 82.563673 0.200000 0.000000
Stz15 Stz15 tz15 1.281800 100.000000 63.875622 0.200000 0.000000
ST46 ST46 T46 0.494357 100.000000 39.668459 0.200000 0.000000
Stz99 Stz99 tz99 3.326354 100.000000 102.898557 0.200000 0.000000
Stz30 Stz30 tz30 1.989525 100.000000 79.579240 0.200000 0.000000
ST58 ST58 T58 2.588128 100.000000 90.764905 0.200000 0.000000
Stz66 Stz66 tz66 1.809044 100.000000 75.883905 0.200000 0.000000
Stz124 Stz124 tz124 0.873368 100.000000 52.725863 0.200000 0.000000
STZ144 STZ144 TZ144 2.204248 100.000000 83.763597 0.573303 0.000000
ST49 ST49 T49 3.553912 100.000000 106.360022 0.200000 0.000000
Stz100 Stz100 tz100 2.969262 100.000000 97.218591 0.200000 0.000000
Stz16 Stz16 tz16 2.200524 100.000000 83.692795 0.332497 0.000000
Stz125 Stz125 tz125 2.055832 100.000000 80.894482 0.200000 0.000000
STZ145 STZ145 TZ145 2.114354 100.000000 82.037778 0.320978 0.000000
Stz31 Stz31 tz31 3.878328 100.000000 111.108509 0.411218 0.000000
Stz101 Stz101 tz101 2.747724 100.000000 93.521528 0.200000 0.000000
Stz67 Stz67 tz67 2.511073 100.000000 89.403537 0.200000 0.000000
Stz43 Stz43 tz43 4.755977 100.000000 123.039611 0.200000 0.000000
Stz126 Stz126 tz126 3.737670 100.000000 109.075073 0.200000 0.000000
Stz17 Stz17 tz17 3.030867 100.000000 98.221932 0.200000 0.000000
STZ146 STZ146 TZ146 2.002643 100.000000 79.841158 0.455546 0.000000
ST2 ST2 T2 2.663383 100.000000 92.075039 0.200000 0.000000
ST45 ST45 T45 4.905807 100.000000 124.962671 0.200000 0.000000
Stz68 Stz68 tz68 3.035973 100.000000 98.304637 0.200000 0.000000
Stz18 Stz18 tz18 4.209893 100.000000 115.760547 0.630617 0.000000
Stz62 Stz62 tz62 2.686169 100.000000 92.468050 0.200000 0.000000
STZ1461 STZ1461 TZ1461 2.020622 100.000000 80.198745 0.200000 0.000000
Stz32 Stz32 tz32 3.291795 100.000000 102.362642 0.234918 0.000000
Stz102 Stz102 tz102 2.601814 100.000000 91.004566 0.200000 0.000000
ST59 ST59 T59 5.294859 100.000000 129.823188 0.200000 0.000000
Stz69 Stz69 tz69 2.995658 100.000000 97.649767 0.200000 0.000000
STZ1462 STZ1462 TZ1462 2.102705 100.000000 81.811481 0.200000 0.000000
Stz63 Stz63 tz63 2.465048 100.000000 88.580431 0.200000 0.000000
Stz103 Stz103 tz103 2.866912 100.000000 95.528342 0.200000 0.000000
Stz127 Stz127 tz127 8.401294 100.000000 163.530272 0.200000 0.000000
STZ1463 STZ1463 TZ1463 2.469988 100.000000 88.669131 0.200000 0.000000
Stz64 Stz64 tz64 8.746211 100.000000 166.853395 0.848952 0.000000
Stz104 Stz104 tz104 7.803564 100.000000 157.605566 0.200000 0.000000
Stz70 Stz70 tz70 3.576226 100.000000 106.693401 0.200000 0.000000
Stz128 Stz128 tz128 0.041522 100.000000 11.496397 0.215316 0.000000
ST17 ST17 T17 1.882589 100.000000 77.411024 0.789956 0.000000
Stz44 Stz44 tz44 5.257555 100.000000 129.365052 0.200000 0.000000
Stz129 Stz129 tz129 3.950738 100.000000 112.140938 0.257270 0.000000
ST18 ST18 T18 2.536926 100.000000 89.862597 0.591342 0.000000
ST61 ST61 T61 1.780930 100.000000 75.291942 0.200000 0.000000
Stz71 Stz71 tz71 2.555520 100.000000 90.191308 0.200000 0.000000
Stz130 Stz130 tz130 3.297280 100.000000 102.447878 0.200000 0.000000
Stz45 Stz45 tz45 4.644429 100.000000 121.588138 0.230196 0.000000
Stz72 Stz72 tz72 2.316593 100.000000 85.871675 0.200000 0.000000
Stz73 Stz73 tz73 1.293783 100.000000 64.173497 0.209909 0.000000
Stz46 Stz46 tz46 7.684050 100.000000 156.394023 0.497136 0.000000
Stz74 Stz74 tz74 8.080532 100.000000 160.378092 1.181522 0.000000
